/*---------------------------------------------------------------------------*\
| =========                 |                                                 |
| \\      /  F ield         | OpenFOAM: The Open Source CFD Toolbox           |
|  \\    /   O peration     | Version:  4.x                                   |
|   \\  /    A nd           | Web:      www.OpenFOAM.org                      |
|    \\/     M anipulation  |                                                 |
\*---------------------------------------------------------------------------*/
Build  : 4.x-d214c8dfd5ba
Exec   : reconstructParMesh -mergeTol 1e-06 -constant
Date   : Feb 11 2021
Time   : 13:36:23
Host   : "DESKTOP-1H96F7Q"
PID    : 19696
Case   : /home/kyfrankie/openfoam/tip/template
nProcs : 1
sigFpe : Enabling floating point exception trapping (FOAM_SIGFPE).
fileModificationChecking : Monitoring run-time modified files using timeStampMaster
allowSystemOperations : Allowing user-supplied system call operations

// * * * * * * * * * * * * * * * * * * * * * * * * * * * * * * * * * * * * * //
Create time

This is an experimental tool which tries to merge individual processor
meshes back into one master mesh. Use it if the original master mesh has
been deleted or if the processor meshes have been modified (topology change).
This tool will write the resulting mesh to a new time step and construct
xxxxProcAddressing files in the processor meshes so reconstructPar can be
used to regenerate the fields on the master mesh.

Not well tested & use at your own risk!

Merge tolerance : 1e-06
Write tolerance : 1e-08
Doing geometric matching on correct procBoundaries only.
This assumes a correct decomposition.
Found 12 processor directories

Reading database "template/processor0"
Reading database "template/processor1"
Reading database "template/processor2"
Reading database "template/processor3"
Reading database "template/processor4"
Reading database "template/processor5"
Reading database "template/processor6"
Reading database "template/processor7"
Reading database "template/processor8"
Reading database "template/processor9"
Reading database "template/processor10"
Reading database "template/processor11"
Time = constant

Reading points from "template/processor0" for time = constant

Reading points from "template/processor1" for time = constant

Reading points from "template/processor2" for time = constant

Reading points from "template/processor3" for time = constant

Reading points from "template/processor4" for time = constant

Reading points from "template/processor5" for time = constant

Reading points from "template/processor6" for time = constant

Reading points from "template/processor7" for time = constant

Reading points from "template/processor8" for time = constant

Reading points from "template/processor9" for time = constant

Reading points from "template/processor10" for time = constant

Reading points from "template/processor11" for time = constant

Overall mesh bounding box  : (-1.5 -1.5 0) (3 1.5 1.5)
Relative tolerance         : 1e-06
Absolute matching distance : 5.6124861e-06

Constructing empty mesh to add to.

Reading mesh to add from "template/processor0" for time = constant

Adding to master mesh


Reading mesh to add from "template/processor1" for time = constant

Adding to master mesh


Reading mesh to add from "template/processor2" for time = constant

Adding to master mesh


Reading mesh to add from "template/processor3" for time = constant

Adding to master mesh


Reading mesh to add from "template/processor4" for time = constant

Adding to master mesh


Reading mesh to add from "template/processor5" for time = constant

Adding to master mesh


Reading mesh to add from "template/processor6" for time = constant

Adding to master mesh


Reading mesh to add from "template/processor7" for time = constant

Adding to master mesh


Reading mesh to add from "template/processor8" for time = constant

Adding to master mesh


Reading mesh to add from "template/processor9" for time = constant

Adding to master mesh


Reading mesh to add from "template/processor10" for time = constant

Adding to master mesh


Reading mesh to add from "template/processor11" for time = constant

Adding to master mesh


mergeSharedPoints : detected 0 points that are to be merged.

Writing merged mesh to "/home/kyfrankie/openfoam/tip/template/constant"

Reconstructing the addressing from the processor meshes to the newly reconstructed mesh

Reading processor 0 mesh from "template/processor0"
Writing pointProcAddressing to "template/processor0/constant/polyMesh"
Writing faceProcAddressing to "template/processor0/constant/polyMesh"
Writing cellProcAddressing to "template/processor0/constant/polyMesh"
Writing boundaryProcAddressing to "template/processor0/constant/polyMesh"

Reading processor 1 mesh from "template/processor1"
Writing pointProcAddressing to "template/processor1/constant/polyMesh"
Writing faceProcAddressing to "template/processor1/constant/polyMesh"
Writing cellProcAddressing to "template/processor1/constant/polyMesh"
Writing boundaryProcAddressing to "template/processor1/constant/polyMesh"

Reading processor 2 mesh from "template/processor2"
Writing pointProcAddressing to "template/processor2/constant/polyMesh"
Writing faceProcAddressing to "template/processor2/constant/polyMesh"
Writing cellProcAddressing to "template/processor2/constant/polyMesh"
Writing boundaryProcAddressing to "template/processor2/constant/polyMesh"

Reading processor 3 mesh from "template/processor3"
Writing pointProcAddressing to "template/processor3/constant/polyMesh"
Writing faceProcAddressing to "template/processor3/constant/polyMesh"
Writing cellProcAddressing to "template/processor3/constant/polyMesh"
Writing boundaryProcAddressing to "template/processor3/constant/polyMesh"

Reading processor 4 mesh from "template/processor4"
Writing pointProcAddressing to "template/processor4/constant/polyMesh"
Writing faceProcAddressing to "template/processor4/constant/polyMesh"
Writing cellProcAddressing to "template/processor4/constant/polyMesh"
Writing boundaryProcAddressing to "template/processor4/constant/polyMesh"

Reading processor 5 mesh from "template/processor5"
Writing pointProcAddressing to "template/processor5/constant/polyMesh"
Writing faceProcAddressing to "template/processor5/constant/polyMesh"
Writing cellProcAddressing to "template/processor5/constant/polyMesh"
Writing boundaryProcAddressing to "template/processor5/constant/polyMesh"

Reading processor 6 mesh from "template/processor6"
Writing pointProcAddressing to "template/processor6/constant/polyMesh"
Writing faceProcAddressing to "template/processor6/constant/polyMesh"
Writing cellProcAddressing to "template/processor6/constant/polyMesh"
Writing boundaryProcAddressing to "template/processor6/constant/polyMesh"

Reading processor 7 mesh from "template/processor7"
Writing pointProcAddressing to "template/processor7/constant/polyMesh"
Writing faceProcAddressing to "template/processor7/constant/polyMesh"
Writing cellProcAddressing to "template/processor7/constant/polyMesh"
Writing boundaryProcAddressing to "template/processor7/constant/polyMesh"

Reading processor 8 mesh from "template/processor8"
Writing pointProcAddressing to "template/processor8/constant/polyMesh"
Writing faceProcAddressing to "template/processor8/constant/polyMesh"
Writing cellProcAddressing to "template/processor8/constant/polyMesh"
Writing boundaryProcAddressing to "template/processor8/constant/polyMesh"

Reading processor 9 mesh from "template/processor9"
Writing pointProcAddressing to "template/processor9/constant/polyMesh"
Writing faceProcAddressing to "template/processor9/constant/polyMesh"
Writing cellProcAddressing to "template/processor9/constant/polyMesh"
Writing boundaryProcAddressing to "template/processor9/constant/polyMesh"

Reading processor 10 mesh from "template/processor10"
Writing pointProcAddressing to "template/processor10/constant/polyMesh"
Writing faceProcAddressing to "template/processor10/constant/polyMesh"
Writing cellProcAddressing to "template/processor10/constant/polyMesh"
Writing boundaryProcAddressing to "template/processor10/constant/polyMesh"

Reading processor 11 mesh from "template/processor11"
Writing pointProcAddressing to "template/processor11/constant/polyMesh"
Writing faceProcAddressing to "template/processor11/constant/polyMesh"
Writing cellProcAddressing to "template/processor11/constant/polyMesh"
Writing boundaryProcAddressing to "template/processor11/constant/polyMesh"

End.

