/*---------------------------------------------------------------------------*\
| =========                 |                                                 |
| \\      /  F ield         | OpenFOAM: The Open Source CFD Toolbox           |
|  \\    /   O peration     | Version:  4.x                                   |
|   \\  /    A nd           | Web:      www.OpenFOAM.org                      |
|    \\/     M anipulation  |                                                 |
\*---------------------------------------------------------------------------*/
Build  : 4.x-d214c8dfd5ba
Exec   : snappyHexMesh -overwrite -parallel
Date   : Feb 11 2021
Time   : 13:33:37
Host   : "DESKTOP-1H96F7Q"
PID    : 19488
Case   : /home/kyfrankie/openfoam/tip/template
nProcs : 12
Slaves : 
11
(
"DESKTOP-1H96F7Q.19489"
"DESKTOP-1H96F7Q.19490"
"DESKTOP-1H96F7Q.19491"
"DESKTOP-1H96F7Q.19492"
"DESKTOP-1H96F7Q.19493"
"DESKTOP-1H96F7Q.19494"
"DESKTOP-1H96F7Q.19495"
"DESKTOP-1H96F7Q.19496"
"DESKTOP-1H96F7Q.19497"
"DESKTOP-1H96F7Q.19498"
"DESKTOP-1H96F7Q.19499"
)

Pstream initialized with:
    floatTransfer      : 0
    nProcsSimpleSum    : 0
    commsType          : nonBlocking
    polling iterations : 0
sigFpe : Enabling floating point exception trapping (FOAM_SIGFPE).
fileModificationChecking : Monitoring run-time modified files using timeStampMaster
allowSystemOperations : Allowing user-supplied system call operations

// * * * * * * * * * * * * * * * * * * * * * * * * * * * * * * * * * * * * * //
Create time

Create mesh for time = 0

Read mesh in = 0.01 s

Overall mesh bounding box  : (-1.5 -1.5 0) (3 1.5 1.5)
Relative tolerance         : 1e-06
Absolute matching distance : 5.6124861e-06

Reading refinement surfaces.
Read refinement surfaces in = 0.04 s

Reading refinement shells.
Refinement level 2 for all cells inside refinementBoxA
Read refinement shells in = 0 s

Setting refinement level of surface to be consistent with shells.
Checked shell refinement in = 0 s

Reading features.
Read edgeMesh Wing.eMesh
    points      : 1375
    edges       : 1376
    boundingBox : (-1.463814e-05 -0.0078212023 0) (0.1513253 0.01337585 0.3125)

Refinement level according to distance to "Wing.eMesh" (1375 points, 1376 edges).
    level 0 for all cells within 0 metre.
Read edgeMesh Tips.eMesh
    points      : 3366
    edges       : 3375
    boundingBox : (0.02522791 -0.001 0.3125) (0.0955 0.0049999999 0.39653069)

Refinement level according to distance to "Tips.eMesh" (3366 points, 3375 edges).
    level 0 for all cells within 0 metre.
Read features in = 0.01 s


Determining initial surface intersections
-----------------------------------------

Edge intersection testing:
    Number of edges             : 63225
    Number of edges to retest   : 63225
    Number of intersected edges : 3
Calculated surface intersections in = 0.02 s

Initial mesh : cells:20250  faces:63225  points:22816
Cells per refinement level:
    0	20250

Adding patches for surface regions
----------------------------------

Patch Type                Region                        
----- ----                ------                        
Wing.stl:

6     wall                Wing.stl                      

Tips.stl:

7     wall                Tips.stl                      

Added patches in = 0 s

Selecting decompositionMethod scotch
Layer thickness specified as first layer and expansion ratio.

Refinement phase
----------------

Found point (0.4 0 0.1) in cell 203 on processor 10

Feature refinement iteration 0
------------------------------

Marked for refinement due to explicit features             : 0 cells.
Determined cells to refine in = 0.02 s
Selected for feature refinement : 0 cells (out of 20250)
Stopping refining since too few cells selected.


Surface refinement iteration 0
------------------------------

Marked for refinement due to surface intersection          : 6 cells.
Determined cells to refine in = 0 s
Selected for refinement : 6 cells (out of 20250)
Edge intersection testing:
    Number of edges             : 63384
    Number of edges to retest   : 269
    Number of intersected edges : 12
Refined mesh in = 0.04 s
After refinement surface refinement iteration 0 : cells:20292  faces:63384  points:22897
Cells per refinement level:
    0	20244
    1	48
Skipping balancing since max unbalance 0.031933767 is less than allowable 0.1

Surface refinement iteration 1
------------------------------

Marked for refinement due to surface intersection          : 24 cells.
Determined cells to refine in = 0 s
Selected for refinement : 38 cells (out of 20292)
Edge intersection testing:
    Number of edges             : 64305
    Number of edges to retest   : 1295
    Number of intersected edges : 69
Refined mesh in = 0.02 s
After refinement surface refinement iteration 1 : cells:20558  faces:64305  points:23299
Cells per refinement level:
    0	20230
    1	136
    2	192
Balanced mesh in = 0.11 s
After balancing surface refinement iteration 1 : cells:20558  faces:64305  points:23299
Cells per refinement level:
    0	20230
    1	136
    2	192

Surface refinement iteration 2
------------------------------

Marked for refinement due to surface intersection          : 111 cells.
Determined cells to refine in = 0 s
Selected for refinement : 137 cells (out of 20558)
Edge intersection testing:
    Number of edges             : 67521
    Number of edges to retest   : 4374
    Number of intersected edges : 515
Refined mesh in = 0.03 s
After refinement surface refinement iteration 2 : cells:21517  faces:67521  points:24621
Cells per refinement level:
    0	20225
    1	145
    2	339
    3	808
Balanced mesh in = 0.14 s
After balancing surface refinement iteration 2 : cells:21517  faces:67521  points:24621
Cells per refinement level:
    0	20225
    1	145
    2	339
    3	808

Surface refinement iteration 3
------------------------------

Marked for refinement due to surface intersection          : 699 cells.
Determined cells to refine in = 0 s
Selected for refinement : 833 cells (out of 21517)
Edge intersection testing:
    Number of edges             : 86292
    Number of edges to retest   : 23092
    Number of intersected edges : 2027
Refined mesh in = 0.07 s
After refinement surface refinement iteration 3 : cells:27348  faces:86292  points:31778
Cells per refinement level:
    0	20214
    1	200
    2	457
    3	1333
    4	5144
Balanced mesh in = 0.18 s
After balancing surface refinement iteration 3 : cells:27348  faces:86292  points:31778
Cells per refinement level:
    0	20214
    1	200
    2	457
    3	1333
    4	5144

Surface refinement iteration 4
------------------------------

Marked for refinement due to surface intersection          : 3320 cells.
Determined cells to refine in = 0.01 s
Selected for refinement : 3525 cells (out of 27348)
Edge intersection testing:
    Number of edges             : 165795
    Number of edges to retest   : 99337
    Number of intersected edges : 8057
Refined mesh in = 0.14 s
After refinement surface refinement iteration 4 : cells:52023  faces:165795  points:61969
Cells per refinement level:
    0	20204
    1	260
    2	551
    3	1498
    4	4982
    5	24528
Balanced mesh in = 0.37 s
After balancing surface refinement iteration 4 : cells:52023  faces:165795  points:61969
Cells per refinement level:
    0	20204
    1	260
    2	551
    3	1498
    4	4982
    5	24528

Surface refinement iteration 5
------------------------------

Marked for refinement due to surface intersection          : 13498 cells.
Determined cells to refine in = 0.01 s
Selected for refinement : 14054 cells (out of 52023)
Edge intersection testing:
    Number of edges             : 483789
    Number of edges to retest   : 405940
    Number of intersected edges : 32256
Refined mesh in = 0.36 s
After refinement surface refinement iteration 5 : cells:150401  faces:483789  points:183356
Cells per refinement level:
    0	20199
    1	289
    2	607
    3	1605
    4	4715
    5	23802
    6	99184
Balanced mesh in = 0.9 s
After balancing surface refinement iteration 5 : cells:150401  faces:483789  points:183356
Cells per refinement level:
    0	20199
    1	289
    2	607
    3	1605
    4	4715
    5	23802
    6	99184

Surface refinement iteration 6
------------------------------

Marked for refinement due to surface intersection          : 5050 cells.
Determined cells to refine in = 0.04 s
Selected for refinement : 5530 cells (out of 150401)
Edge intersection testing:
    Number of edges             : 607446
    Number of edges to retest   : 170274
    Number of intersected edges : 42207
Refined mesh in = 0.24 s
After refinement surface refinement iteration 6 : cells:189111  faces:607446  points:229516
Cells per refinement level:
    0	20197
    1	300
    2	623
    3	1689
    4	5087
    5	22839
    6	138376
Balanced mesh in = 1.16 s
After balancing surface refinement iteration 6 : cells:189111  faces:607446  points:229516
Cells per refinement level:
    0	20197
    1	300
    2	623
    3	1689
    4	5087
    5	22839
    6	138376

Surface refinement iteration 7
------------------------------

Marked for refinement due to surface intersection          : 697 cells.
Determined cells to refine in = 0.03 s
Selected for refinement : 840 cells (out of 189111)
Edge intersection testing:
    Number of edges             : 626352
    Number of edges to retest   : 35242
    Number of intersected edges : 43545
Refined mesh in = 0.19 s
After refinement surface refinement iteration 7 : cells:194991  faces:626352  points:236685
Cells per refinement level:
    0	20196
    1	304
    2	638
    3	1784
    4	5279
    5	23286
    6	143504
Balanced mesh in = 1.19 s
After balancing surface refinement iteration 7 : cells:194991  faces:626352  points:236685
Cells per refinement level:
    0	20196
    1	304
    2	638
    3	1784
    4	5279
    5	23286
    6	143504

Surface refinement iteration 8
------------------------------

Marked for refinement due to surface intersection          : 250 cells.
Determined cells to refine in = 0.03 s
Selected for refinement : 301 cells (out of 194991)
Edge intersection testing:
    Number of edges             : 633183
    Number of edges to retest   : 13740
    Number of intersected edges : 43998
Refined mesh in = 0.17 s
After refinement surface refinement iteration 8 : cells:197098  faces:633183  points:239313
Cells per refinement level:
    0	20196
    1	303
    2	642
    3	1798
    4	5367
    5	23512
    6	145280
Skipping balancing since max unbalance 0.066183634 is less than allowable 0.1

Surface refinement iteration 9
------------------------------

Marked for refinement due to surface intersection          : 112 cells.
Determined cells to refine in = 0.03 s
Selected for refinement : 154 cells (out of 197098)
Edge intersection testing:
    Number of edges             : 636717
    Number of edges to retest   : 7664
    Number of intersected edges : 44201
Refined mesh in = 0.16 s
After refinement surface refinement iteration 9 : cells:198176  faces:636717  points:240701
Cells per refinement level:
    0	20196
    1	302
    2	649
    3	1793
    4	5439
    5	23661
    6	146136
Skipping balancing since max unbalance 0.098098583 is less than allowable 0.1

Surface refinement iteration 10
------------------------------

Marked for refinement due to surface intersection          : 41 cells.
Determined cells to refine in = 0.05 s
Selected for refinement : 65 cells (out of 198176)
Stopping refining since too few cells selected.


Removing mesh beyond surface intersections
------------------------------------------

Found point (0.4 0 0.1) in global region 0 out of 5 regions.
Keeping all cells in region 0 containing point (0.4 0 0.1)
Selected for keeping : 162947 cells.
Edge intersection testing:
    Number of edges             : 536402
    Number of edges to retest   : 36136
    Number of intersected edges : 44201

Shell refinement iteration 0
----------------------------

Marked for refinement due to distance to explicit features : 0 cells.
Marked for refinement due to refinement shells             : 5288 cells.
Determined cells to refine in = 0.44 s
Selected for internal refinement : 29069 cells (out of 162947)
Edge intersection testing:
    Number of edges             : 1155569
    Number of edges to retest   : 893620
    Number of intersected edges : 44305
Refined mesh in = 0.44 s
After refinement shell refinement iteration 0 : cells:366430  faces:1155569  points:422959
Cells per refinement level:
    0	15210
    1	39888
    2	2418
    3	5178
    4	14336
    5	41274
    6	248126
Balanced mesh in = 2.21 s
After balancing shell refinement iteration 0 : cells:366430  faces:1155569  points:422959
Cells per refinement level:
    0	15210
    1	39888
    2	2418
    3	5178
    4	14336
    5	41274
    6	248126

Shell refinement iteration 1
----------------------------

Marked for refinement due to distance to explicit features : 0 cells.
Marked for refinement due to refinement shells             : 39888 cells.
Determined cells to refine in = 0.1 s
Selected for internal refinement : 64711 cells (out of 366430)
Edge intersection testing:
    Number of edges             : 2533562
    Number of edges to retest   : 1861366
    Number of intersected edges : 44304
Refined mesh in = 1.19 s
After refinement shell refinement iteration 1 : cells:819407  faces:2533562  points:895132
Cells per refinement level:
    0	10608
    1	36816
    2	320610
    3	10410
    4	24802
    5	78443
    6	337718
Balanced mesh in = 4.84 s
After balancing shell refinement iteration 1 : cells:819407  faces:2533562  points:895132
Cells per refinement level:
    0	10608
    1	36816
    2	320610
    3	10410
    4	24802
    5	78443
    6	337718

Shell refinement iteration 2
----------------------------

Marked for refinement due to distance to explicit features : 0 cells.
Marked for refinement due to refinement shells             : 0 cells.
Determined cells to refine in = 0.18 s
Selected for internal refinement : 3042 cells (out of 819407)
Edge intersection testing:
    Number of edges             : 2598464
    Number of edges to retest   : 162008
    Number of intersected edges : 44304
Refined mesh in = 0.86 s
After refinement shell refinement iteration 2 : cells:840701  faces:2598464  points:917454
Cells per refinement level:
    0	10562
    1	37184
    2	320144
    3	13009
    4	32449
    5	89507
    6	337846
Skipping balancing since max unbalance 0.058465843 is less than allowable 0.1

Shell refinement iteration 3
----------------------------

Marked for refinement due to distance to explicit features : 0 cells.
Marked for refinement due to refinement shells             : 0 cells.
Determined cells to refine in = 0.16 s
Selected for internal refinement : 725 cells (out of 840701)
Edge intersection testing:
    Number of edges             : 2613980
    Number of edges to retest   : 43181
    Number of intersected edges : 44304
Refined mesh in = 0.84 s
After refinement shell refinement iteration 3 : cells:845776  faces:2613980  points:922822
Cells per refinement level:
    0	10562
    1	37184
    2	319802
    3	15363
    4	35504
    5	89515
    6	337846
Skipping balancing since max unbalance 0.073764561 is less than allowable 0.1

Shell refinement iteration 4
----------------------------

Marked for refinement due to distance to explicit features : 0 cells.
Marked for refinement due to refinement shells             : 0 cells.
Determined cells to refine in = 0.16 s
Selected for internal refinement : 86 cells (out of 845776)
Stopping refining since too few cells selected.


Dangling coarse cells refinement iteration 0
--------------------------------------------

Determined cells to refine in = 0.01 s
Selected for refinement : 0 cells (out of 845776)
Stopping refining since too few cells selected.


Dangling coarse cells refinement iteration 0
--------------------------------------------

Determined cells to refine in = 0 s
Selected for refinement : 0 cells (out of 845776)
Stopping refining since too few cells selected.


Splitting mesh at surface intersections
---------------------------------------

Introducing baffles for 44304 faces that are intersected by the surface.

Edge intersection testing:
    Number of edges             : 2657398
    Number of edges to retest   : 312576
    Number of intersected edges : 87722
Created baffles in = 0.8 s


After introducing baffles : cells:845776  faces:2657398  points:922857
Cells per refinement level:
    0	10562
    1	37184
    2	319802
    3	15363
    4	35504
    5	89515
    6	337846

Introducing baffles to block off problem cells
----------------------------------------------

markFacesOnProblemCells : marked 76170 additional internal faces to be converted into baffles.
Analyzed problem cells in = 0.35 s


Introducing baffles to delete problem cells.

Edge intersection testing:
    Number of edges             : 2733568
    Number of edges to retest   : 231803
    Number of intersected edges : 87722
Created baffles in = 0.73 s


After introducing baffles : cells:845776  faces:2733568  points:924135
Cells per refinement level:
    0	10562
    1	37184
    2	319802
    3	15363
    4	35504
    5	89515
    6	337846

Remove unreachable sections of mesh
-----------------------------------

Keeping all cells in region 2 containing point (0.4 0 0.1)
Selected for keeping : 804841 cells.
Edge intersection testing:
    Number of edges             : 2494524
    Number of edges to retest   : 0
    Number of intersected edges : 43846
Split mesh in = 1.72 s


After subsetting : cells:804841  faces:2494524  points:884717
Cells per refinement level:
    0	10562
    1	37184
    2	319802
    3	15363
    4	35504
    5	89515
    6	296911

Handling cells with snap problems
---------------------------------

Introducing baffles for 43846 faces that are intersected by the surface.

Edge intersection testing:
    Number of edges             : 2494524
    Number of edges to retest   : 162566
    Number of intersected edges : 43846
Created baffles in = 0.61 s


After introducing baffles : cells:804841  faces:2494524  points:884717
Cells per refinement level:
    0	10562
    1	37184
    2	319802
    3	15363
    4	35504
    5	89515
    6	296911

Introducing baffles to block off problem cells
----------------------------------------------

markFacesOnProblemCells : marked 0 additional internal faces to be converted into baffles.
Analyzed problem cells in = 0.34 s


Introducing baffles to delete problem cells.

Edge intersection testing:
    Number of edges             : 2494524
    Number of edges to retest   : 0
    Number of intersected edges : 43846
Created baffles in = 0.46 s


After introducing baffles : cells:804841  faces:2494524  points:884717
Cells per refinement level:
    0	10562
    1	37184
    2	319802
    3	15363
    4	35504
    5	89515
    6	296911

Remove unreachable sections of mesh
-----------------------------------

Keeping all cells in region 0 containing point (0.4 0 0.1)
Selected for keeping : 804841 cells.
Edge intersection testing:
    Number of edges             : 2494524
    Number of edges to retest   : 0
    Number of intersected edges : 43846
Split mesh in = 1.51 s


After subsetting : cells:804841  faces:2494524  points:884717
Cells per refinement level:
    0	10562
    1	37184
    2	319802
    3	15363
    4	35504
    5	89515
    6	296911

Merge free-standing baffles
---------------------------

freeStandingBaffles : detected 200 free-standing baffles out of 474

freeStandingBaffles : detected 0 planar (within 10 degrees) free-standing baffles out of 200

Detected free-standing baffles : 0
Merged free-standing baffles in = 0.19 s


dupNonManifoldPoints : Found : 477 non-manifold points (out of 919040)
Edge intersection testing:
    Number of edges             : 2494524
    Number of edges to retest   : 0
    Number of intersected edges : 43846
Detected unsplittable baffles : 0

Merge refined boundary faces
----------------------------

Merging 0 sets of faces.

No faces merged ...

Merging all points on surface that
- are used by only two boundary faces and
- make an angle with a cosine of more than 0.70710678.

No straight edges simplified and no points removed ...

Doing final balancing
---------------------

Found 0 zoned faces to keep together.
Found 0 separated coupled faces to keep together.
Refined mesh : cells:804841  faces:2494524  points:885194
Cells per refinement level:
    0	10562
    1	37184
    2	319802
    3	15363
    4	35504
    5	89515
    6	296911
Writing mesh to time constant
Wrote mesh in = 5.35 s.
Mesh refined in = 29.18 s.

Morphing phase
--------------


Snapping to features in 30 iterations ...
Constructing mesh displacer ...
Using mesh parameters 
{
    maxNonOrtho     65;
    maxBoundarySkewness 20;
    maxInternalSkewness 4;
    maxConcave      80;
    minVol          1e-13;
    minTetQuality   1e-30;
    minArea         -1;
    minTwist        0.05;
    minDeterminant  0.001;
    minFaceWeight   0.05;
    minVolRatio     0.01;
    minTriangleTwist -1;
    nSmoothScale    4;
    errorReduction  0.75;
}


Checking initial mesh ...
Checking faces in error :
    non-orthogonality > 65  degrees                        : 0
    faces with face pyramid volume < 1e-13                 : 0
    faces with face-decomposition tet quality < 1e-30      : 0
    faces with concavity > 80  degrees                     : 0
    faces with skewness > 4   (internal) or 20  (boundary) : 0
    faces with interpolation weights (0..1)  < 0.05        : 0
    faces with volume ratio of neighbour cells < 0.01      : 0
    faces with face twist < 0.05                           : 0
    faces on cells with determinant < 0.001                : 0
Detected 0 illegal faces (concave, zero area or negative cell pyramid volume)
Checked initial mesh in = 0.53 s


Smoothing patch points ...
Smoothing iteration 0
Found 614 non-manifold point(s).

Scaling iteration 0
Moving mesh using displacement scaling : min:1  max:1
Checking faces in error :
    non-orthogonality > 65  degrees                        : 0
    faces with face pyramid volume < 1e-13                 : 0
    faces with face-decomposition tet quality < 1e-30      : 0
    faces with concavity > 80  degrees                     : 0
    faces with skewness > 4   (internal) or 20  (boundary) : 0
    faces with interpolation weights (0..1)  < 0.05        : 0
    faces with volume ratio of neighbour cells < 0.01      : 0
    faces with face twist < 0.05                           : 0
    faces on cells with determinant < 0.001                : 0
Successfully moved mesh

Smoothing iteration 1
Found 0 non-manifold point(s).

Scaling iteration 0
Moving mesh using displacement scaling : min:1  max:1
Checking faces in error :
    non-orthogonality > 65  degrees                        : 0
    faces with face pyramid volume < 1e-13                 : 0
    faces with face-decomposition tet quality < 1e-30      : 0
    faces with concavity > 80  degrees                     : 0
    faces with skewness > 4   (internal) or 20  (boundary) : 0
    faces with interpolation weights (0..1)  < 0.05        : 0
    faces with volume ratio of neighbour cells < 0.01      : 0
    faces with face twist < 0.05                           : 0
    faces on cells with determinant < 0.001                : 0
Successfully moved mesh

Smoothing iteration 2
Found 0 non-manifold point(s).

Scaling iteration 0
Moving mesh using displacement scaling : min:1  max:1
Checking faces in error :
    non-orthogonality > 65  degrees                        : 0
    faces with face pyramid volume < 1e-13                 : 0
    faces with face-decomposition tet quality < 1e-30      : 0
    faces with concavity > 80  degrees                     : 0
    faces with skewness > 4   (internal) or 20  (boundary) : 0
    faces with interpolation weights (0..1)  < 0.05        : 0
    faces with volume ratio of neighbour cells < 0.01      : 0
    faces with face twist < 0.05                           : 0
    faces on cells with determinant < 0.001                : 0
Successfully moved mesh

Patch points smoothed in = 1.19 s



Morph iteration 0
-----------------
Calculating patchDisplacement as distance to nearest surface point ...
Wanted displacement : average:0.00031673128 min:0 max:0.00093542242
Calculated surface displacement in = 0.08 s


Detecting near surfaces ...
Overriding nearest with intersection of close gaps at 562 out of 45098 points.
Overriding displacement on features :
   implicit features    : false
   explicit features    : true
   multi-patch features : true

Detected 293 baffle edges out of 88938 edges.
Initially selected 2497 points out of 45098 for reverse attraction.
Selected 4922 points out of 45098 for reverse attraction.
Removing constraints near multi-patch points : changed 27 points
Stringing feature edges : changed 98 points
Stringing feature edges : changed 3 points
Stringing feature edges : changed 0 points
Attraction:
     linear   : max:(-4.5873578e-06 0.00093539897 -4.7781917e-06) avg:(-4.0807041e-07 -8.6035393e-06 -2.7972468e-06)
     feature  : max:(0.0015762545 -8.6846143e-05 0.00015266323) avg:(4.499253e-06 -1.155597e-06 1.3569284e-06)
Feature analysis : total master points:43958 attraction to :
    feature point   : 30
    feature edge    : 1258
    nearest surface : 0
    rest            : 42670

--> FOAM Warning : Displacement (-5.9966834e-08 1.0066601e-06 6.9987352e-09) at mesh point 4783 coord (0.029676762 0.011150251 0.15000201) points through the surrounding patch faces
Smoothing displacement ...
Iteration 0
Iteration 10
Iteration 20
Displacement smoothed in = 0.98 s


Moving mesh ...

Iteration 0
Moving mesh using displacement scaling : min:1  max:1
Checking faces in error :
    non-orthogonality > 65  degrees                        : 0
    faces with face pyramid volume < 1e-13                 : 0
    faces with face-decomposition tet quality < 1e-30      : 0
    faces with concavity > 80  degrees                     : 0
    faces with skewness > 4   (internal) or 20  (boundary) : 0
    faces with interpolation weights (0..1)  < 0.05        : 0
    faces with volume ratio of neighbour cells < 0.01      : 0
    faces with face twist < 0.05                           : 0
    faces on cells with determinant < 0.001                : 0
Successfully moved mesh
Moved mesh in = 0.35 s



Morph iteration 1
-----------------
Calculating patchDisplacement as distance to nearest surface point ...
Wanted displacement : average:0.00031031353 min:0 max:0.00091754209
Calculated surface displacement in = 0.08 s


Detecting near surfaces ...
Overriding nearest with intersection of close gaps at 559 out of 45098 points.
Overriding displacement on features :
   implicit features    : false
   explicit features    : true
   multi-patch features : true

Detected 293 baffle edges out of 88938 edges.
Initially selected 2497 points out of 45098 for reverse attraction.
Selected 4922 points out of 45098 for reverse attraction.
Removing constraints near multi-patch points : changed 27 points
Stringing feature edges : changed 98 points
Stringing feature edges : changed 3 points
Stringing feature edges : changed 0 points
Attraction:
     linear   : max:(3.7784562e-06 0.00091752322 -4.5112407e-06) avg:(-3.9042605e-07 -8.4219362e-06 -2.7381637e-06)
     feature  : max:(0.0015738154 -7.9358989e-05 0.00015242652) avg:(4.4880375e-06 -1.1138968e-06 1.3532801e-06)
Feature analysis : total master points:43958 attraction to :
    feature point   : 30
    feature edge    : 1258
    nearest surface : 0
    rest            : 42670

--> FOAM Warning : Displacement (-4.3225019e-07 2.3965848e-07 -7.8772481e-09) at mesh point 4770 coord (0.031105333 0.011250361 0.13906249) points through the surrounding patch faces
Smoothing displacement ...
Iteration 0
Iteration 10
Iteration 20
Displacement smoothed in = 0.9 s


Moving mesh ...

Iteration 0
Moving mesh using displacement scaling : min:1  max:1
Checking faces in error :
    non-orthogonality > 65  degrees                        : 0
    faces with face pyramid volume < 1e-13                 : 0
    faces with face-decomposition tet quality < 1e-30      : 0
    faces with concavity > 80  degrees                     : 0
    faces with skewness > 4   (internal) or 20  (boundary) : 0
    faces with interpolation weights (0..1)  < 0.05        : 0
    faces with volume ratio of neighbour cells < 0.01      : 0
    faces with face twist < 0.05                           : 0
    faces on cells with determinant < 0.001                : 0
Successfully moved mesh
Moved mesh in = 0.35 s



Morph iteration 2
-----------------
Calculating patchDisplacement as distance to nearest surface point ...
Wanted displacement : average:0.00029761428 min:0 max:0.00089021222
Calculated surface displacement in = 0.08 s


Detecting near surfaces ...
Overriding nearest with intersection of close gaps at 557 out of 45098 points.
Overriding displacement on features :
   implicit features    : false
   explicit features    : true
   multi-patch features : true

Detected 295 baffle edges out of 88938 edges.
Initially selected 2501 points out of 45098 for reverse attraction.
Selected 4931 points out of 45098 for reverse attraction.
Removing constraints near multi-patch points : changed 27 points
Stringing feature edges : changed 98 points
Stringing feature edges : changed 3 points
Stringing feature edges : changed 0 points
Attraction:
     linear   : max:(0 -0.00089021222 0) avg:(-3.405743e-07 -8.0777095e-06 -2.6233013e-06)
     feature  : max:(0.0015655369 -6.5210631e-05 0.00015162385) avg:(4.5280824e-06 -1.1723164e-06 1.3608076e-06)
Feature analysis : total master points:43958 attraction to :
    feature point   : 31
    feature edge    : 1263
    nearest surface : 0
    rest            : 42664

--> FOAM Warning : Displacement (-9.0699642e-07 2.3723994e-06 -4.0252736e-09) at mesh point 4770 coord (0.031104901 0.0112506 0.13906249) points through the surrounding patch faces
Smoothing displacement ...
Iteration 0
Iteration 10
Iteration 20
Displacement smoothed in = 0.92 s


Moving mesh ...

Iteration 0
Moving mesh using displacement scaling : min:1  max:1
Checking faces in error :
    non-orthogonality > 65  degrees                        : 0
    faces with face pyramid volume < 1e-13                 : 0
    faces with face-decomposition tet quality < 1e-30      : 0
    faces with concavity > 80  degrees                     : 0
    faces with skewness > 4   (internal) or 20  (boundary) : 0
    faces with interpolation weights (0..1)  < 0.05        : 0
    faces with volume ratio of neighbour cells < 0.01      : 0
    faces with face twist < 0.05                           : 0
    faces on cells with determinant < 0.001                : 0
Successfully moved mesh
Moved mesh in = 0.35 s



Morph iteration 3
-----------------
Calculating patchDisplacement as distance to nearest surface point ...
Wanted displacement : average:0.00027928436 min:0 max:0.00088190269
Calculated surface displacement in = 0.07 s


Detecting near surfaces ...
Overriding nearest with intersection of close gaps at 554 out of 45098 points.
Overriding displacement on features :
   implicit features    : false
   explicit features    : true
   multi-patch features : true

Detected 296 baffle edges out of 88938 edges.
Initially selected 2517 points out of 45098 for reverse attraction.
Selected 4940 points out of 45098 for reverse attraction.
Removing constraints near multi-patch points : changed 27 points
Stringing feature edges : changed 97 points
Stringing feature edges : changed 3 points
Stringing feature edges : changed 0 points
Attraction:
     linear   : max:(0 -0.00088190269 0) avg:(-2.9976755e-07 -7.5444459e-06 -2.4514294e-06)
     feature  : max:(0.0015481487 -4.5935796e-05 0.00014993858) avg:(4.4125976e-06 -1.1879691e-06 1.3464562e-06)
Feature analysis : total master points:43958 attraction to :
    feature point   : 32
    feature edge    : 1278
    nearest surface : 0
    rest            : 42648

--> FOAM Warning : Displacement (-1.5095652e-06 6.0663055e-06 3.4888152e-09) at mesh point 4770 coord (0.031103994 0.011252973 0.13906248) points through the surrounding patch faces
Smoothing displacement ...
Iteration 0
Iteration 10
Iteration 20
Displacement smoothed in = 0.93 s


Moving mesh ...

Iteration 0
Moving mesh using displacement scaling : min:1  max:1
Checking faces in error :
    non-orthogonality > 65  degrees                        : 0
    faces with face pyramid volume < 1e-13                 : 0
    faces with face-decomposition tet quality < 1e-30      : 0
    faces with concavity > 80  degrees                     : 0
    faces with skewness > 4   (internal) or 20  (boundary) : 0
    faces with interpolation weights (0..1)  < 0.05        : 0
    faces with volume ratio of neighbour cells < 0.01      : 0
    faces with face twist < 0.05                           : 0
    faces on cells with determinant < 0.001                : 0
Successfully moved mesh
Moved mesh in = 0.35 s



Morph iteration 4
-----------------
Calculating patchDisplacement as distance to nearest surface point ...
Wanted displacement : average:0.00025638487 min:0 max:0.00087112265
Calculated surface displacement in = 0.07 s


Detecting near surfaces ...
Overriding nearest with intersection of close gaps at 548 out of 45098 points.
Overriding displacement on features :
   implicit features    : false
   explicit features    : true
   multi-patch features : true

Detected 296 baffle edges out of 88938 edges.
Initially selected 2524 points out of 45098 for reverse attraction.
Selected 4950 points out of 45098 for reverse attraction.
Removing constraints near multi-patch points : changed 27 points
Stringing feature edges : changed 98 points
Stringing feature edges : changed 3 points
Stringing feature edges : changed 0 points
Attraction:
     linear   : max:(0 -0.00087112265 0) avg:(-2.6040268e-07 -6.8590762e-06 -2.2356227e-06)
     feature  : max:(0.0027114815 -0.00017862148 0.00027748718) avg:(4.4080941e-06 -1.2926362e-06 1.345766e-06)
Feature analysis : total master points:43958 attraction to :
    feature point   : 34
    feature edge    : 1285
    nearest surface : 0
    rest            : 42639

--> FOAM Warning : Displacement (-2.1667325e-06 1.1136671e-05 1.1854889e-08) at mesh point 4770 coord (0.031102485 0.011259039 0.13906249) points through the surrounding patch faces
Smoothing displacement ...
Iteration 0
Iteration 10
Iteration 20
Displacement smoothed in = 0.91 s


Moving mesh ...

Iteration 0
Moving mesh using displacement scaling : min:1  max:1
Checking faces in error :
    non-orthogonality > 65  degrees                        : 0
    faces with face pyramid volume < 1e-13                 : 0
    faces with face-decomposition tet quality < 1e-30      : 0
    faces with concavity > 80  degrees                     : 0
    faces with skewness > 4   (internal) or 20  (boundary) : 0
    faces with interpolation weights (0..1)  < 0.05        : 0
    faces with volume ratio of neighbour cells < 0.01      : 0
    faces with face twist < 0.05                           : 0
    faces on cells with determinant < 0.001                : 0
Successfully moved mesh
Moved mesh in = 0.35 s



Morph iteration 5
-----------------
Calculating patchDisplacement as distance to nearest surface point ...
Wanted displacement : average:0.00023025274 min:0 max:0.00085826715
Calculated surface displacement in = 0.07 s


Detecting near surfaces ...
Overriding nearest with intersection of close gaps at 556 out of 45098 points.
Overriding displacement on features :
   implicit features    : false
   explicit features    : true
   multi-patch features : true

Detected 296 baffle edges out of 88938 edges.
Initially selected 2536 points out of 45098 for reverse attraction.
Selected 4957 points out of 45098 for reverse attraction.
Removing constraints near multi-patch points : changed 27 points
Stringing feature edges : changed 97 points
Stringing feature edges : changed 3 points
Stringing feature edges : changed 0 points
Attraction:
     linear   : max:(0 -0.00085826715 0) avg:(-2.0238515e-07 -6.0852704e-06 -2.0335482e-06)
     feature  : max:(0.002673822 -0.00017614062 0.0002350933) avg:(4.3314578e-06 -1.2877398e-06 1.2818566e-06)
Feature analysis : total master points:43958 attraction to :
    feature point   : 35
    feature edge    : 1292
    nearest surface : 0
    rest            : 42631

--> FOAM Warning : Displacement (-2.7891449e-06 1.7107005e-05 1.8487039e-08) at mesh point 4770 coord (0.031100318 0.011270176 0.1390625) points through the surrounding patch faces
Smoothing displacement ...
Iteration 0
Iteration 10
Iteration 20
Displacement smoothed in = 0.94 s


Moving mesh ...

Iteration 0
Moving mesh using displacement scaling : min:1  max:1
Checking faces in error :
    non-orthogonality > 65  degrees                        : 0
    faces with face pyramid volume < 1e-13                 : 0
    faces with face-decomposition tet quality < 1e-30      : 0
    faces with concavity > 80  degrees                     : 0
    faces with skewness > 4   (internal) or 20  (boundary) : 0
    faces with interpolation weights (0..1)  < 0.05        : 0
    faces with volume ratio of neighbour cells < 0.01      : 0
    faces with face twist < 0.05                           : 0
    faces on cells with determinant < 0.001                : 0
Successfully moved mesh
Moved mesh in = 0.36 s



Morph iteration 6
-----------------
Calculating patchDisplacement as distance to nearest surface point ...
Wanted displacement : average:0.00020234004 min:0 max:0.00084364282
Calculated surface displacement in = 0.07 s


Detecting near surfaces ...
Overriding nearest with intersection of close gaps at 556 out of 45098 points.
Overriding displacement on features :
   implicit features    : false
   explicit features    : true
   multi-patch features : true

Detected 297 baffle edges out of 88938 edges.
Initially selected 2545 points out of 45098 for reverse attraction.
Selected 4958 points out of 45098 for reverse attraction.
Removing constraints near multi-patch points : changed 27 points
Stringing feature edges : changed 99 points
Stringing feature edges : changed 1 points
Stringing feature edges : changed 0 points
Attraction:
     linear   : max:(0 -0.00084364282 0) avg:(-1.8035784e-07 -5.2193717e-06 -1.7549656e-06)
     feature  : max:(0.0026203456 -0.00017261781 0.00019277651) avg:(4.0655736e-06 -1.2941094e-06 1.2810021e-06)
Feature analysis : total master points:43958 attraction to :
    feature point   : 35
    feature edge    : 1300
    nearest surface : 0
    rest            : 42623

--> FOAM Warning : Displacement (6.4748434e-07 1.2802467e-06 -2.6724108e-09) at mesh point 4587 coord (0.026566591 0.011129114 0.13749994) points through the surrounding patch faces
Smoothing displacement ...
Iteration 0
Iteration 10
Iteration 20
Displacement smoothed in = 0.92 s


Moving mesh ...

Iteration 0
Moving mesh using displacement scaling : min:1  max:1
Checking faces in error :
    non-orthogonality > 65  degrees                        : 0
    faces with face pyramid volume < 1e-13                 : 0
    faces with face-decomposition tet quality < 1e-30      : 0
    faces with concavity > 80  degrees                     : 0
    faces with skewness > 4   (internal) or 20  (boundary) : 0
    faces with interpolation weights (0..1)  < 0.05        : 0
    faces with volume ratio of neighbour cells < 0.01      : 0
    faces with face twist < 0.05                           : 0
    faces on cells with determinant < 0.001                : 0
Successfully moved mesh
Moved mesh in = 0.35 s



Morph iteration 7
-----------------
Calculating patchDisplacement as distance to nearest surface point ...
Wanted displacement : average:0.000173932 min:0 max:0.00082423442
Calculated surface displacement in = 0.07 s


Detecting near surfaces ...
Overriding nearest with intersection of close gaps at 557 out of 45098 points.
Overriding displacement on features :
   implicit features    : false
   explicit features    : true
   multi-patch features : true

Detected 297 baffle edges out of 88938 edges.
Initially selected 2556 points out of 45098 for reverse attraction.
Selected 4966 points out of 45098 for reverse attraction.
Removing constraints near multi-patch points : changed 27 points
Stringing feature edges : changed 92 points
Stringing feature edges : changed 0 points
Attraction:
     linear   : max:(-0.00080663821 0 0.00016940241) avg:(-1.8415396e-07 -4.2942331e-06 -1.464098e-06)
     feature  : max:(0.0025490139 -0.00016791877 0.00015304313) avg:(3.7633702e-06 -1.2402713e-06 1.2397925e-06)
Feature analysis : total master points:43958 attraction to :
    feature point   : 33
    feature edge    : 1310
    nearest surface : 0
    rest            : 42615

--> FOAM Warning : Displacement (4.8695515e-07 2.6457114e-06 4.4687212e-09) at mesh point 4587 coord (0.026567238 0.011130394 0.13749993) points through the surrounding patch faces
Smoothing displacement ...
Iteration 0
Iteration 10
Iteration 20
Displacement smoothed in = 0.94 s


Moving mesh ...

Iteration 0
Moving mesh using displacement scaling : min:1  max:1
Checking faces in error :
    non-orthogonality > 65  degrees                        : 0
    faces with face pyramid volume < 1e-13                 : 0
    faces with face-decomposition tet quality < 1e-30      : 0
    faces with concavity > 80  degrees                     : 0
    faces with skewness > 4   (internal) or 20  (boundary) : 0
    faces with interpolation weights (0..1)  < 0.05        : 0
    faces with volume ratio of neighbour cells < 0.01      : 0
    faces with face twist < 0.05                           : 0
    faces on cells with determinant < 0.001                : 0
Successfully moved mesh
Moved mesh in = 0.36 s



Morph iteration 8
-----------------
Calculating patchDisplacement as distance to nearest surface point ...
Wanted displacement : average:0.00014616443 min:0 max:0.00075055869
Calculated surface displacement in = 0.05 s


Detecting near surfaces ...
Overriding nearest with intersection of close gaps at 548 out of 45098 points.
Overriding displacement on features :
   implicit features    : false
   explicit features    : true
   multi-patch features : true

Detected 298 baffle edges out of 88938 edges.
Initially selected 2567 points out of 45098 for reverse attraction.
Selected 4981 points out of 45098 for reverse attraction.
Removing constraints near multi-patch points : changed 27 points
Stringing feature edges : changed 91 points
Stringing feature edges : changed 0 points
Attraction:
     linear   : max:(-0.00073453535 2.1684043e-19 0.00015426006) avg:(-1.5027069e-07 -3.4229132e-06 -1.1937279e-06)
     feature  : max:(0.0024583823 -0.00016194833 0.00011767316) avg:(3.6394785e-06 -1.2896191e-06 1.1328334e-06)
Feature analysis : total master points:43958 attraction to :
    feature point   : 34
    feature edge    : 1328
    nearest surface : 0
    rest            : 42596

--> FOAM Warning : Displacement (3.2562539e-07 3.6630645e-06 1.1529369e-08) at mesh point 4587 coord (0.026567725 0.01113304 0.13749994) points through the surrounding patch faces
Smoothing displacement ...
Iteration 0
Iteration 10
Iteration 20
Displacement smoothed in = 0.87 s


Moving mesh ...

Iteration 0
Moving mesh using displacement scaling : min:1  max:1
Checking faces in error :
    non-orthogonality > 65  degrees                        : 0
    faces with face pyramid volume < 1e-13                 : 0
    faces with face-decomposition tet quality < 1e-30      : 0
    faces with concavity > 80  degrees                     : 0
    faces with skewness > 4   (internal) or 20  (boundary) : 0
    faces with interpolation weights (0..1)  < 0.05        : 0
    faces with volume ratio of neighbour cells < 0.01      : 0
    faces with face twist < 0.05                           : 0
    faces on cells with determinant < 0.001                : 0
Successfully moved mesh
Moved mesh in = 0.36 s



Morph iteration 9
-----------------
Calculating patchDisplacement as distance to nearest surface point ...
Wanted displacement : average:0.00012002902 min:0 max:0.00072273343
Calculated surface displacement in = 0.05 s


Detecting near surfaces ...
Overriding nearest with intersection of close gaps at 553 out of 45098 points.
Overriding displacement on features :
   implicit features    : false
   explicit features    : true
   multi-patch features : true

Detected 299 baffle edges out of 88938 edges.
Initially selected 2573 points out of 45098 for reverse attraction.
Selected 4990 points out of 45098 for reverse attraction.
Removing constraints near multi-patch points : changed 27 points
Stringing feature edges : changed 91 points
Stringing feature edges : changed 4 points
Stringing feature edges : changed 0 points
Attraction:
     linear   : max:(0 -0.00072273343 0) avg:(-1.1399823e-07 -2.5967858e-06 -9.4836562e-07)
     feature  : max:(0.0023477551 -0.00015466065 8.7666505e-05) avg:(3.2490047e-06 -1.3275349e-06 1.026901e-06)
Feature analysis : total master points:43958 attraction to :
    feature point   : 34
    feature edge    : 1343
    nearest surface : 0
    rest            : 42581

--> FOAM Warning : Displacement (1.8605025e-07 4.1893472e-06 1.7308829e-08) at mesh point 4587 coord (0.026568051 0.011136703 0.13749995) points through the surrounding patch faces
Smoothing displacement ...
Iteration 0
Iteration 10
Iteration 20
Displacement smoothed in = 0.92 s


Moving mesh ...

Iteration 0
Moving mesh using displacement scaling : min:1  max:1
Checking faces in error :
    non-orthogonality > 65  degrees                        : 0
    faces with face pyramid volume < 1e-13                 : 0
    faces with face-decomposition tet quality < 1e-30      : 0
    faces with concavity > 80  degrees                     : 0
    faces with skewness > 4   (internal) or 20  (boundary) : 0
    faces with interpolation weights (0..1)  < 0.05        : 0
    faces with volume ratio of neighbour cells < 0.01      : 0
    faces with face twist < 0.05                           : 0
    faces on cells with determinant < 0.001                : 0
Successfully moved mesh
Moved mesh in = 0.36 s



Morph iteration 10
-----------------
Calculating patchDisplacement as distance to nearest surface point ...
Wanted displacement : average:9.6270825e-05 min:0 max:0.00063308525
Calculated surface displacement in = 0.07 s


Detecting near surfaces ...
Overriding nearest with intersection of close gaps at 558 out of 45098 points.
Overriding displacement on features :
   implicit features    : false
   explicit features    : true
   multi-patch features : true

Detected 300 baffle edges out of 88938 edges.
Initially selected 2589 points out of 45098 for reverse attraction.
Selected 4993 points out of 45098 for reverse attraction.
Removing constraints near multi-patch points : changed 27 points
Stringing feature edges : changed 85 points
Stringing feature edges : changed 1 points
Stringing feature edges : changed 0 points
Attraction:
     linear   : max:(0 -0.00063308525 0) avg:(-8.6472408e-08 -1.782966e-06 -7.2520441e-07)
     feature  : max:(0.0022173243 -0.00014606839 6.3314698e-05) avg:(2.9329686e-06 -1.195321e-06 9.2990126e-07)
Feature analysis : total master points:43958 attraction to :
    feature point   : 34
    feature edge    : 1363
    nearest surface : 0
    rest            : 42561

--> FOAM Warning : Displacement (8.3931089e-08 4.2028384e-06 2.0878991e-08) at mesh point 4587 coord (0.026568237 0.011140892 0.13749997) points through the surrounding patch faces
Smoothing displacement ...
Iteration 0
Iteration 10
Iteration 20
Displacement smoothed in = 0.93 s


Moving mesh ...

Iteration 0
Moving mesh using displacement scaling : min:1  max:1
Checking faces in error :
    non-orthogonality > 65  degrees                        : 0
    faces with face pyramid volume < 1e-13                 : 0
    faces with face-decomposition tet quality < 1e-30      : 0
    faces with concavity > 80  degrees                     : 0
    faces with skewness > 4   (internal) or 20  (boundary) : 0
    faces with interpolation weights (0..1)  < 0.05        : 0
    faces with volume ratio of neighbour cells < 0.01      : 0
    faces with face twist < 0.05                           : 0
    faces on cells with determinant < 0.001                : 0
Successfully moved mesh
Moved mesh in = 0.36 s



Morph iteration 11
-----------------
Calculating patchDisplacement as distance to nearest surface point ...
Wanted displacement : average:7.546086e-05 min:0 max:0.00057795583
Calculated surface displacement in = 0.07 s


Detecting near surfaces ...
Overriding nearest with intersection of close gaps at 566 out of 45098 points.
Overriding displacement on features :
   implicit features    : false
   explicit features    : true
   multi-patch features : true

Detected 298 baffle edges out of 88938 edges.
Initially selected 2599 points out of 45098 for reverse attraction.
Selected 4990 points out of 45098 for reverse attraction.
Removing constraints near multi-patch points : changed 27 points
Stringing feature edges : changed 79 points
Stringing feature edges : changed 0 points
Attraction:
     linear   : max:(0.00013823921 -0.00029266981 -0.00049950417) avg:(-8.5211348e-08 -1.1124932e-06 -5.413905e-07)
     feature  : max:(0.0020682708 -0.00013624935 4.4355463e-05) avg:(2.6180134e-06 -1.0117458e-06 7.7813403e-07)
Feature analysis : total master points:43958 attraction to :
    feature point   : 34
    feature edge    : 1371
    nearest surface : 0
    rest            : 42553

--> FOAM Warning : Displacement (3.6578989e-07 5.2303879e-07 1.3087343e-08) at mesh point 4075 coord (0.026574255 0.011090758 0.14843732) points through the surrounding patch faces
Smoothing displacement ...
Iteration 0
Iteration 10
Iteration 20
Displacement smoothed in = 0.93 s


Moving mesh ...

Iteration 0
Moving mesh using displacement scaling : min:1  max:1
Checking faces in error :
    non-orthogonality > 65  degrees                        : 0
    faces with face pyramid volume < 1e-13                 : 0
    faces with face-decomposition tet quality < 1e-30      : 1
    faces with concavity > 80  degrees                     : 0
    faces with skewness > 4   (internal) or 20  (boundary) : 0
    faces with interpolation weights (0..1)  < 0.05        : 0
    faces with volume ratio of neighbour cells < 0.01      : 0
    faces with face twist < 0.05                           : 0
    faces on cells with determinant < 0.001                : 0

Iteration 1
Moving mesh using displacement scaling : min:0.75  max:1
Checking faces in error :
    non-orthogonality > 65  degrees                        : 0
    faces with face pyramid volume < 1e-13                 : 0
    faces with face-decomposition tet quality < 1e-30      : 1
    faces with concavity > 80  degrees                     : 0
    faces with skewness > 4   (internal) or 20  (boundary) : 0
    faces with interpolation weights (0..1)  < 0.05        : 0
    faces with volume ratio of neighbour cells < 0.01      : 0
    faces with face twist < 0.05                           : 0
    faces on cells with determinant < 0.001                : 0

Iteration 2
Moving mesh using displacement scaling : min:0.5625  max:1
Checking faces in error :
    non-orthogonality > 65  degrees                        : 0
    faces with face pyramid volume < 1e-13                 : 0
    faces with face-decomposition tet quality < 1e-30      : 1
    faces with concavity > 80  degrees                     : 0
    faces with skewness > 4   (internal) or 20  (boundary) : 0
    faces with interpolation weights (0..1)  < 0.05        : 0
    faces with volume ratio of neighbour cells < 0.01      : 0
    faces with face twist < 0.05                           : 0
    faces on cells with determinant < 0.001                : 0

Iteration 3
Moving mesh using displacement scaling : min:0.421875  max:1
Checking faces in error :
    non-orthogonality > 65  degrees                        : 0
    faces with face pyramid volume < 1e-13                 : 0
    faces with face-decomposition tet quality < 1e-30      : 1
    faces with concavity > 80  degrees                     : 0
    faces with skewness > 4   (internal) or 20  (boundary) : 0
    faces with interpolation weights (0..1)  < 0.05        : 0
    faces with volume ratio of neighbour cells < 0.01      : 0
    faces with face twist < 0.05                           : 0
    faces on cells with determinant < 0.001                : 0

Iteration 4
Moving mesh using displacement scaling : min:0.31640625  max:1
Checking faces in error :
    non-orthogonality > 65  degrees                        : 0
    faces with face pyramid volume < 1e-13                 : 0
    faces with face-decomposition tet quality < 1e-30      : 1
    faces with concavity > 80  degrees                     : 0
    faces with skewness > 4   (internal) or 20  (boundary) : 0
    faces with interpolation weights (0..1)  < 0.05        : 0
    faces with volume ratio of neighbour cells < 0.01      : 0
    faces with face twist < 0.05                           : 0
    faces on cells with determinant < 0.001                : 0

Iteration 5
Displacement scaling for error reduction set to 0.
Moving mesh using displacement scaling : min:0.23730469  max:1
Checking faces in error :
    non-orthogonality > 65  degrees                        : 0
    faces with face pyramid volume < 1e-13                 : 0
    faces with face-decomposition tet quality < 1e-30      : 1
    faces with concavity > 80  degrees                     : 0
    faces with skewness > 4   (internal) or 20  (boundary) : 0
    faces with interpolation weights (0..1)  < 0.05        : 0
    faces with volume ratio of neighbour cells < 0.01      : 0
    faces with face twist < 0.05                           : 0
    faces on cells with determinant < 0.001                : 0

Iteration 6
Moving mesh using displacement scaling : min:0  max:1
Checking faces in error :
    non-orthogonality > 65  degrees                        : 0
    faces with face pyramid volume < 1e-13                 : 0
    faces with face-decomposition tet quality < 1e-30      : 0
    faces with concavity > 80  degrees                     : 0
    faces with skewness > 4   (internal) or 20  (boundary) : 0
    faces with interpolation weights (0..1)  < 0.05        : 0
    faces with volume ratio of neighbour cells < 0.01      : 0
    faces with face twist < 0.05                           : 0
    faces on cells with determinant < 0.001                : 0
Successfully moved mesh
Moved mesh in = 1.38 s



Morph iteration 12
-----------------
Calculating patchDisplacement as distance to nearest surface point ...
Wanted displacement : average:5.7901394e-05 min:0 max:0.00052866656
Calculated surface displacement in = 0.05 s


Detecting near surfaces ...
Overriding nearest with intersection of close gaps at 571 out of 45098 points.
Overriding displacement on features :
   implicit features    : false
   explicit features    : true
   multi-patch features : true

Detected 298 baffle edges out of 88938 edges.
Initially selected 2592 points out of 45098 for reverse attraction.
Selected 4983 points out of 45098 for reverse attraction.
Removing constraints near multi-patch points : changed 27 points
Stringing feature edges : changed 71 points
Stringing feature edges : changed 0 points
Attraction:
     linear   : max:(0 -0.00052866656 0) avg:(-8.8545805e-08 -5.7974789e-07 -3.8067528e-07)
     feature  : max:(0.0020682708 -0.00013624935 4.4355463e-05) avg:(2.1750397e-06 -8.5982061e-07 6.6884112e-07)
Feature analysis : total master points:43958 attraction to :
    feature point   : 34
    feature edge    : 1372
    nearest surface : 0
    rest            : 42552

--> FOAM Warning : Displacement (2.7852589e-07 4.2970725e-07 9.3047409e-09) at mesh point 4584 coord (0.026575525 0.011083548 0.14999977) points through the surrounding patch faces
Smoothing displacement ...
Iteration 0
Iteration 10
Iteration 20
Displacement smoothed in = 0.89 s


Moving mesh ...

Iteration 0
Moving mesh using displacement scaling : min:1  max:1
Checking faces in error :
    non-orthogonality > 65  degrees                        : 0
    faces with face pyramid volume < 1e-13                 : 0
    faces with face-decomposition tet quality < 1e-30      : 3
    faces with concavity > 80  degrees                     : 0
    faces with skewness > 4   (internal) or 20  (boundary) : 0
    faces with interpolation weights (0..1)  < 0.05        : 0
    faces with volume ratio of neighbour cells < 0.01      : 0
    faces with face twist < 0.05                           : 1
    faces on cells with determinant < 0.001                : 0

Iteration 1
Moving mesh using displacement scaling : min:0.75  max:1
Checking faces in error :
    non-orthogonality > 65  degrees                        : 0
    faces with face pyramid volume < 1e-13                 : 0
    faces with face-decomposition tet quality < 1e-30      : 1
    faces with concavity > 80  degrees                     : 0
    faces with skewness > 4   (internal) or 20  (boundary) : 0
    faces with interpolation weights (0..1)  < 0.05        : 0
    faces with volume ratio of neighbour cells < 0.01      : 0
    faces with face twist < 0.05                           : 0
    faces on cells with determinant < 0.001                : 0

Iteration 2
Moving mesh using displacement scaling : min:0.5625  max:1
Checking faces in error :
    non-orthogonality > 65  degrees                        : 0
    faces with face pyramid volume < 1e-13                 : 0
    faces with face-decomposition tet quality < 1e-30      : 1
    faces with concavity > 80  degrees                     : 0
    faces with skewness > 4   (internal) or 20  (boundary) : 0
    faces with interpolation weights (0..1)  < 0.05        : 0
    faces with volume ratio of neighbour cells < 0.01      : 0
    faces with face twist < 0.05                           : 0
    faces on cells with determinant < 0.001                : 0

Iteration 3
Moving mesh using displacement scaling : min:0.421875  max:1
Checking faces in error :
    non-orthogonality > 65  degrees                        : 0
    faces with face pyramid volume < 1e-13                 : 0
    faces with face-decomposition tet quality < 1e-30      : 1
    faces with concavity > 80  degrees                     : 0
    faces with skewness > 4   (internal) or 20  (boundary) : 0
    faces with interpolation weights (0..1)  < 0.05        : 0
    faces with volume ratio of neighbour cells < 0.01      : 0
    faces with face twist < 0.05                           : 0
    faces on cells with determinant < 0.001                : 0

Iteration 4
Moving mesh using displacement scaling : min:0.31640625  max:1
Checking faces in error :
    non-orthogonality > 65  degrees                        : 0
    faces with face pyramid volume < 1e-13                 : 0
    faces with face-decomposition tet quality < 1e-30      : 1
    faces with concavity > 80  degrees                     : 0
    faces with skewness > 4   (internal) or 20  (boundary) : 0
    faces with interpolation weights (0..1)  < 0.05        : 0
    faces with volume ratio of neighbour cells < 0.01      : 0
    faces with face twist < 0.05                           : 0
    faces on cells with determinant < 0.001                : 0

Iteration 5
Displacement scaling for error reduction set to 0.
Moving mesh using displacement scaling : min:0.23730469  max:1
Checking faces in error :
    non-orthogonality > 65  degrees                        : 0
    faces with face pyramid volume < 1e-13                 : 0
    faces with face-decomposition tet quality < 1e-30      : 1
    faces with concavity > 80  degrees                     : 0
    faces with skewness > 4   (internal) or 20  (boundary) : 0
    faces with interpolation weights (0..1)  < 0.05        : 0
    faces with volume ratio of neighbour cells < 0.01      : 0
    faces with face twist < 0.05                           : 0
    faces on cells with determinant < 0.001                : 0

Iteration 6
Moving mesh using displacement scaling : min:0  max:1
Checking faces in error :
    non-orthogonality > 65  degrees                        : 0
    faces with face pyramid volume < 1e-13                 : 0
    faces with face-decomposition tet quality < 1e-30      : 0
    faces with concavity > 80  degrees                     : 0
    faces with skewness > 4   (internal) or 20  (boundary) : 0
    faces with interpolation weights (0..1)  < 0.05        : 0
    faces with volume ratio of neighbour cells < 0.01      : 0
    faces with face twist < 0.05                           : 0
    faces on cells with determinant < 0.001                : 0
Successfully moved mesh
Moved mesh in = 1.38 s



Morph iteration 13
-----------------
Calculating patchDisplacement as distance to nearest surface point ...
Wanted displacement : average:4.3533105e-05 min:0 max:0.0005369914
Calculated surface displacement in = 0.05 s


Detecting near surfaces ...
Overriding nearest with intersection of close gaps at 588 out of 45098 points.
Overriding displacement on features :
   implicit features    : false
   explicit features    : true
   multi-patch features : true

Detected 297 baffle edges out of 88938 edges.
Initially selected 2595 points out of 45098 for reverse attraction.
Selected 4983 points out of 45098 for reverse attraction.
Removing constraints near multi-patch points : changed 27 points
Stringing feature edges : changed 65 points
Stringing feature edges : changed 0 points
Attraction:
     linear   : max:(0.00012557699 -0.00025360035 -0.00053780702) avg:(-7.7131067e-08 -1.8687925e-07 -2.6448087e-07)
     feature  : max:(0.0020682708 -0.00013624935 4.4355463e-05) avg:(1.7484897e-06 -7.4906734e-07 5.589719e-07)
Feature analysis : total master points:43958 attraction to :
    feature point   : 34
    feature edge    : 1375
    nearest surface : 0
    rest            : 42549

--> FOAM Warning : Displacement (1.666152e-07 6.5453811e-07 9.0094393e-09) at mesh point 4584 coord (0.026575804 0.011083977 0.14999978) points through the surrounding patch faces
Smoothing displacement ...
Iteration 0
Iteration 10
Iteration 20
Displacement smoothed in = 0.88 s


Moving mesh ...

Iteration 0
Moving mesh using displacement scaling : min:1  max:1
Checking faces in error :
    non-orthogonality > 65  degrees                        : 0
    faces with face pyramid volume < 1e-13                 : 0
    faces with face-decomposition tet quality < 1e-30      : 4
    faces with concavity > 80  degrees                     : 0
    faces with skewness > 4   (internal) or 20  (boundary) : 0
    faces with interpolation weights (0..1)  < 0.05        : 0
    faces with volume ratio of neighbour cells < 0.01      : 0
    faces with face twist < 0.05                           : 0
    faces on cells with determinant < 0.001                : 0

Iteration 1
Moving mesh using displacement scaling : min:0.75  max:1
Checking faces in error :
    non-orthogonality > 65  degrees                        : 0
    faces with face pyramid volume < 1e-13                 : 0
    faces with face-decomposition tet quality < 1e-30      : 1
    faces with concavity > 80  degrees                     : 0
    faces with skewness > 4   (internal) or 20  (boundary) : 0
    faces with interpolation weights (0..1)  < 0.05        : 0
    faces with volume ratio of neighbour cells < 0.01      : 0
    faces with face twist < 0.05                           : 0
    faces on cells with determinant < 0.001                : 0

Iteration 2
Moving mesh using displacement scaling : min:0.5625  max:1
Checking faces in error :
    non-orthogonality > 65  degrees                        : 0
    faces with face pyramid volume < 1e-13                 : 0
    faces with face-decomposition tet quality < 1e-30      : 1
    faces with concavity > 80  degrees                     : 0
    faces with skewness > 4   (internal) or 20  (boundary) : 0
    faces with interpolation weights (0..1)  < 0.05        : 0
    faces with volume ratio of neighbour cells < 0.01      : 0
    faces with face twist < 0.05                           : 0
    faces on cells with determinant < 0.001                : 0

Iteration 3
Moving mesh using displacement scaling : min:0.421875  max:1
Checking faces in error :
    non-orthogonality > 65  degrees                        : 0
    faces with face pyramid volume < 1e-13                 : 0
    faces with face-decomposition tet quality < 1e-30      : 1
    faces with concavity > 80  degrees                     : 0
    faces with skewness > 4   (internal) or 20  (boundary) : 0
    faces with interpolation weights (0..1)  < 0.05        : 0
    faces with volume ratio of neighbour cells < 0.01      : 0
    faces with face twist < 0.05                           : 0
    faces on cells with determinant < 0.001                : 0

Iteration 4
Moving mesh using displacement scaling : min:0.31640625  max:1
Checking faces in error :
    non-orthogonality > 65  degrees                        : 0
    faces with face pyramid volume < 1e-13                 : 0
    faces with face-decomposition tet quality < 1e-30      : 1
    faces with concavity > 80  degrees                     : 0
    faces with skewness > 4   (internal) or 20  (boundary) : 0
    faces with interpolation weights (0..1)  < 0.05        : 0
    faces with volume ratio of neighbour cells < 0.01      : 0
    faces with face twist < 0.05                           : 0
    faces on cells with determinant < 0.001                : 0

Iteration 5
Displacement scaling for error reduction set to 0.
Moving mesh using displacement scaling : min:0.23730469  max:1
Checking faces in error :
    non-orthogonality > 65  degrees                        : 0
    faces with face pyramid volume < 1e-13                 : 0
    faces with face-decomposition tet quality < 1e-30      : 1
    faces with concavity > 80  degrees                     : 0
    faces with skewness > 4   (internal) or 20  (boundary) : 0
    faces with interpolation weights (0..1)  < 0.05        : 0
    faces with volume ratio of neighbour cells < 0.01      : 0
    faces with face twist < 0.05                           : 0
    faces on cells with determinant < 0.001                : 0

Iteration 6
Moving mesh using displacement scaling : min:0  max:1
Checking faces in error :
    non-orthogonality > 65  degrees                        : 0
    faces with face pyramid volume < 1e-13                 : 0
    faces with face-decomposition tet quality < 1e-30      : 0
    faces with concavity > 80  degrees                     : 0
    faces with skewness > 4   (internal) or 20  (boundary) : 0
    faces with interpolation weights (0..1)  < 0.05        : 0
    faces with volume ratio of neighbour cells < 0.01      : 0
    faces with face twist < 0.05                           : 0
    faces on cells with determinant < 0.001                : 0
Successfully moved mesh
Moved mesh in = 1.37 s



Morph iteration 14
-----------------
Calculating patchDisplacement as distance to nearest surface point ...
Wanted displacement : average:3.2106689e-05 min:0 max:0.00037874869
Calculated surface displacement in = 0.07 s


Detecting near surfaces ...
Overriding nearest with intersection of close gaps at 617 out of 45098 points.
Overriding displacement on features :
   implicit features    : false
   explicit features    : true
   multi-patch features : true

Detected 297 baffle edges out of 88938 edges.
Initially selected 2595 points out of 45098 for reverse attraction.
Selected 4983 points out of 45098 for reverse attraction.
Removing constraints near multi-patch points : changed 27 points
Stringing feature edges : changed 62 points
Stringing feature edges : changed 0 points
Attraction:
     linear   : max:(-0.00035674321 0 0.00012721971) avg:(-7.0379722e-08 1.0216133e-07 -1.6259762e-07)
     feature  : max:(0.0020682708 -0.00013624935 4.4355463e-05) avg:(1.4078247e-06 -6.1015243e-07 4.5280649e-07)
Feature analysis : total master points:43958 attraction to :
    feature point   : 35
    feature edge    : 1377
    nearest surface : 0
    rest            : 42546

--> FOAM Warning : Displacement (8.543456e-08 7.1869174e-07 7.8014343e-09) at mesh point 4584 coord (0.02657597 0.011084632 0.14999979) points through the surrounding patch faces
Smoothing displacement ...
Iteration 0
Iteration 10
Iteration 20
Displacement smoothed in = 0.93 s


Moving mesh ...

Iteration 0
Moving mesh using displacement scaling : min:1  max:1
Checking faces in error :
    non-orthogonality > 65  degrees                        : 0
    faces with face pyramid volume < 1e-13                 : 0
    faces with face-decomposition tet quality < 1e-30      : 4
    faces with concavity > 80  degrees                     : 0
    faces with skewness > 4   (internal) or 20  (boundary) : 0
    faces with interpolation weights (0..1)  < 0.05        : 0
    faces with volume ratio of neighbour cells < 0.01      : 0
    faces with face twist < 0.05                           : 0
    faces on cells with determinant < 0.001                : 0

Iteration 1
Moving mesh using displacement scaling : min:0.75  max:1
Checking faces in error :
    non-orthogonality > 65  degrees                        : 0
    faces with face pyramid volume < 1e-13                 : 0
    faces with face-decomposition tet quality < 1e-30      : 3
    faces with concavity > 80  degrees                     : 0
    faces with skewness > 4   (internal) or 20  (boundary) : 0
    faces with interpolation weights (0..1)  < 0.05        : 0
    faces with volume ratio of neighbour cells < 0.01      : 0
    faces with face twist < 0.05                           : 1
    faces on cells with determinant < 0.001                : 0

Iteration 2
Moving mesh using displacement scaling : min:0.5625  max:1
Checking faces in error :
    non-orthogonality > 65  degrees                        : 0
    faces with face pyramid volume < 1e-13                 : 0
    faces with face-decomposition tet quality < 1e-30      : 1
    faces with concavity > 80  degrees                     : 0
    faces with skewness > 4   (internal) or 20  (boundary) : 0
    faces with interpolation weights (0..1)  < 0.05        : 0
    faces with volume ratio of neighbour cells < 0.01      : 0
    faces with face twist < 0.05                           : 0
    faces on cells with determinant < 0.001                : 0

Iteration 3
Moving mesh using displacement scaling : min:0.421875  max:1
Checking faces in error :
    non-orthogonality > 65  degrees                        : 0
    faces with face pyramid volume < 1e-13                 : 0
    faces with face-decomposition tet quality < 1e-30      : 1
    faces with concavity > 80  degrees                     : 0
    faces with skewness > 4   (internal) or 20  (boundary) : 0
    faces with interpolation weights (0..1)  < 0.05        : 0
    faces with volume ratio of neighbour cells < 0.01      : 0
    faces with face twist < 0.05                           : 0
    faces on cells with determinant < 0.001                : 0

Iteration 4
Moving mesh using displacement scaling : min:0.31640625  max:1
Checking faces in error :
    non-orthogonality > 65  degrees                        : 0
    faces with face pyramid volume < 1e-13                 : 0
    faces with face-decomposition tet quality < 1e-30      : 1
    faces with concavity > 80  degrees                     : 0
    faces with skewness > 4   (internal) or 20  (boundary) : 0
    faces with interpolation weights (0..1)  < 0.05        : 0
    faces with volume ratio of neighbour cells < 0.01      : 0
    faces with face twist < 0.05                           : 0
    faces on cells with determinant < 0.001                : 0

Iteration 5
Displacement scaling for error reduction set to 0.
Moving mesh using displacement scaling : min:0.23730469  max:1
Checking faces in error :
    non-orthogonality > 65  degrees                        : 0
    faces with face pyramid volume < 1e-13                 : 0
    faces with face-decomposition tet quality < 1e-30      : 1
    faces with concavity > 80  degrees                     : 0
    faces with skewness > 4   (internal) or 20  (boundary) : 0
    faces with interpolation weights (0..1)  < 0.05        : 0
    faces with volume ratio of neighbour cells < 0.01      : 0
    faces with face twist < 0.05                           : 0
    faces on cells with determinant < 0.001                : 0

Iteration 6
Moving mesh using displacement scaling : min:0  max:1
Checking faces in error :
    non-orthogonality > 65  degrees                        : 0
    faces with face pyramid volume < 1e-13                 : 0
    faces with face-decomposition tet quality < 1e-30      : 0
    faces with concavity > 80  degrees                     : 0
    faces with skewness > 4   (internal) or 20  (boundary) : 0
    faces with interpolation weights (0..1)  < 0.05        : 0
    faces with volume ratio of neighbour cells < 0.01      : 0
    faces with face twist < 0.05                           : 0
    faces on cells with determinant < 0.001                : 0
Successfully moved mesh
Moved mesh in = 1.4 s



Morph iteration 15
-----------------
Calculating patchDisplacement as distance to nearest surface point ...
Wanted displacement : average:2.3161134e-05 min:0 max:0.00034218714
Calculated surface displacement in = 0.07 s


Detecting near surfaces ...
Overriding nearest with intersection of close gaps at 643 out of 45098 points.
Overriding displacement on features :
   implicit features    : false
   explicit features    : true
   multi-patch features : true

Detected 299 baffle edges out of 88938 edges.
Initially selected 2595 points out of 45098 for reverse attraction.
Selected 4983 points out of 45098 for reverse attraction.
Removing constraints near multi-patch points : changed 27 points
Stringing feature edges : changed 58 points
Stringing feature edges : changed 0 points
Attraction:
     linear   : max:(0.00010505265 -0.00023507952 -0.00059254433) avg:(-5.8208049e-08 2.4639965e-07 -9.9271474e-08)
     feature  : max:(0.0020682708 -0.00013624935 4.4355463e-05) avg:(1.1015399e-06 -4.5269797e-07 3.5805868e-07)
Feature analysis : total master points:43958 attraction to :
    feature point   : 35
    feature edge    : 1380
    nearest surface : 0
    rest            : 42543

--> FOAM Warning : Displacement (3.155383e-08 6.8373332e-07 6.2827363e-09) at mesh point 4584 coord (0.026576056 0.011085351 0.1499998) points through the surrounding patch faces
Smoothing displacement ...
Iteration 0
Iteration 10
Iteration 20
Displacement smoothed in = 0.94 s


Moving mesh ...

Iteration 0
Moving mesh using displacement scaling : min:1  max:1
Checking faces in error :
    non-orthogonality > 65  degrees                        : 0
    faces with face pyramid volume < 1e-13                 : 0
    faces with face-decomposition tet quality < 1e-30      : 4
    faces with concavity > 80  degrees                     : 0
    faces with skewness > 4   (internal) or 20  (boundary) : 0
    faces with interpolation weights (0..1)  < 0.05        : 0
    faces with volume ratio of neighbour cells < 0.01      : 0
    faces with face twist < 0.05                           : 0
    faces on cells with determinant < 0.001                : 0

Iteration 1
Moving mesh using displacement scaling : min:0.75  max:1
Checking faces in error :
    non-orthogonality > 65  degrees                        : 0
    faces with face pyramid volume < 1e-13                 : 0
    faces with face-decomposition tet quality < 1e-30      : 4
    faces with concavity > 80  degrees                     : 0
    faces with skewness > 4   (internal) or 20  (boundary) : 0
    faces with interpolation weights (0..1)  < 0.05        : 0
    faces with volume ratio of neighbour cells < 0.01      : 0
    faces with face twist < 0.05                           : 0
    faces on cells with determinant < 0.001                : 0

Iteration 2
Moving mesh using displacement scaling : min:0.5625  max:1
Checking faces in error :
    non-orthogonality > 65  degrees                        : 0
    faces with face pyramid volume < 1e-13                 : 0
    faces with face-decomposition tet quality < 1e-30      : 1
    faces with concavity > 80  degrees                     : 0
    faces with skewness > 4   (internal) or 20  (boundary) : 0
    faces with interpolation weights (0..1)  < 0.05        : 0
    faces with volume ratio of neighbour cells < 0.01      : 0
    faces with face twist < 0.05                           : 0
    faces on cells with determinant < 0.001                : 0

Iteration 3
Moving mesh using displacement scaling : min:0.421875  max:1
Checking faces in error :
    non-orthogonality > 65  degrees                        : 0
    faces with face pyramid volume < 1e-13                 : 0
    faces with face-decomposition tet quality < 1e-30      : 1
    faces with concavity > 80  degrees                     : 0
    faces with skewness > 4   (internal) or 20  (boundary) : 0
    faces with interpolation weights (0..1)  < 0.05        : 0
    faces with volume ratio of neighbour cells < 0.01      : 0
    faces with face twist < 0.05                           : 0
    faces on cells with determinant < 0.001                : 0

Iteration 4
Moving mesh using displacement scaling : min:0.31640625  max:1
Checking faces in error :
    non-orthogonality > 65  degrees                        : 0
    faces with face pyramid volume < 1e-13                 : 0
    faces with face-decomposition tet quality < 1e-30      : 1
    faces with concavity > 80  degrees                     : 0
    faces with skewness > 4   (internal) or 20  (boundary) : 0
    faces with interpolation weights (0..1)  < 0.05        : 0
    faces with volume ratio of neighbour cells < 0.01      : 0
    faces with face twist < 0.05                           : 0
    faces on cells with determinant < 0.001                : 0

Iteration 5
Displacement scaling for error reduction set to 0.
Moving mesh using displacement scaling : min:0.23730469  max:1
Checking faces in error :
    non-orthogonality > 65  degrees                        : 0
    faces with face pyramid volume < 1e-13                 : 0
    faces with face-decomposition tet quality < 1e-30      : 1
    faces with concavity > 80  degrees                     : 0
    faces with skewness > 4   (internal) or 20  (boundary) : 0
    faces with interpolation weights (0..1)  < 0.05        : 0
    faces with volume ratio of neighbour cells < 0.01      : 0
    faces with face twist < 0.05                           : 0
    faces on cells with determinant < 0.001                : 0

Iteration 6
Moving mesh using displacement scaling : min:0  max:1
Checking faces in error :
    non-orthogonality > 65  degrees                        : 0
    faces with face pyramid volume < 1e-13                 : 0
    faces with face-decomposition tet quality < 1e-30      : 0
    faces with concavity > 80  degrees                     : 0
    faces with skewness > 4   (internal) or 20  (boundary) : 0
    faces with interpolation weights (0..1)  < 0.05        : 0
    faces with volume ratio of neighbour cells < 0.01      : 0
    faces with face twist < 0.05                           : 0
    faces on cells with determinant < 0.001                : 0
Successfully moved mesh
Moved mesh in = 1.39 s



Morph iteration 16
-----------------
Calculating patchDisplacement as distance to nearest surface point ...
Wanted displacement : average:1.6184865e-05 min:0 max:0.0002860713
Calculated surface displacement in = 0.07 s


Detecting near surfaces ...
Overriding nearest with intersection of close gaps at 663 out of 45098 points.
[...]
Detected 2 illegal faces (concave, zero area or negative cell pyramid volume)
Extruding 37812 out of 39162 faces (96.552781%). Removed extrusion at 2 faces.
Added 455570 out of 571760 cells (79.678536%).


Layer addition iteration 13
--------------------------

Determining displacement for added points according to pointNormal ...
Detected 0 points with point normal pointing through faces.
Reset displacement at 0 points to average of surrounding points.

displacementMedialAxis : Smoothing using Medial Axis ...
displacementMedialAxis : Reducing layer thickness at 0 nodes where thickness to medial axis distance is large 
displacementMedialAxis : Removing isolated regions ...
displacementMedialAxis : Number of isolated points extrusion stopped : 0
displacementMedialAxis : Smoothing field ...
    Iteration 0   residual 1.1219351e-05
displacementMedialAxis : Moving mesh ...
displacementMedialAxis : Iteration 0
Moving mesh using displacement scaling : min:1  max:1
Checking faces in error :
    non-orthogonality > 65  degrees                        : 161
    faces with face pyramid volume < 1e-13                 : 43
    faces with face-decomposition tet quality < 1e-30      : 34
    faces with concavity > 80  degrees                     : 0
    faces with skewness > 4   (internal) or 20  (boundary) : 0
    faces with interpolation weights (0..1)  < 0.05        : 0
    faces with volume ratio of neighbour cells < 0.01      : 0
    faces with face twist < 0.05                           : 2
    faces on cells with determinant < 0.001                : 3
displacementMedialAxis : Iteration 1
Moving mesh using displacement scaling : min:0.75  max:1
Checking faces in error :
    non-orthogonality > 65  degrees                        : 38
    faces with face pyramid volume < 1e-13                 : 11
    faces with face-decomposition tet quality < 1e-30      : 14
    faces with concavity > 80  degrees                     : 0
    faces with skewness > 4   (internal) or 20  (boundary) : 0
    faces with interpolation weights (0..1)  < 0.05        : 0
    faces with volume ratio of neighbour cells < 0.01      : 0
    faces with face twist < 0.05                           : 1
    faces on cells with determinant < 0.001                : 0
displacementMedialAxis : Iteration 2
Moving mesh using displacement scaling : min:0.5625  max:1
Checking faces in error :
    non-orthogonality > 65  degrees                        : 2
    faces with face pyramid volume < 1e-13                 : 0
    faces with face-decomposition tet quality < 1e-30      : 12
    faces with concavity > 80  degrees                     : 0
    faces with skewness > 4   (internal) or 20  (boundary) : 0
    faces with interpolation weights (0..1)  < 0.05        : 1
    faces with volume ratio of neighbour cells < 0.01      : 0
    faces with face twist < 0.05                           : 0
    faces on cells with determinant < 0.001                : 0
displacementMedialAxis : Iteration 3
Moving mesh using displacement scaling : min:0.421875  max:1
Checking faces in error :
    non-orthogonality > 65  degrees                        : 0
    faces with face pyramid volume < 1e-13                 : 0
    faces with face-decomposition tet quality < 1e-30      : 0
    faces with concavity > 80  degrees                     : 0
    faces with skewness > 4   (internal) or 20  (boundary) : 0
    faces with interpolation weights (0..1)  < 0.05        : 0
    faces with volume ratio of neighbour cells < 0.01      : 0
    faces with face twist < 0.05                           : 0
    faces on cells with determinant < 0.001                : 0
displacementMedialAxis : Successfully moved mesh
displacementMedialAxis : Finished moving mesh ...
truncateDisplacement : Unextruded 0 faces due to non-consecutive vertices being extruded.
truncateDisplacement : Unextruded 0 faces due to stringed edges with inconsistent extrusion.

Setting up information for layer truncation ...

Checking mesh with layer ...
Checking faces in error :
    non-orthogonality > 65  degrees                        : 0
    faces with face pyramid volume < 1e-13                 : 0
    faces with face-decomposition tet quality < 1e-30      : 1
    faces with concavity > 80  degrees                     : 0
    faces with skewness > 4   (internal) or 20  (boundary) : 0
    faces with interpolation weights (0..1)  < 0.05        : 0
    faces with volume ratio of neighbour cells < 0.01      : 0
    faces with face twist < 0.05                           : 0
    faces on cells with determinant < 0.001                : 0
Detected 1 illegal faces (concave, zero area or negative cell pyramid volume)
Extruding 37811 out of 39162 faces (96.550227%). Removed extrusion at 1 faces.
Added 455557 out of 571760 cells (79.676263%).


Layer addition iteration 14
--------------------------

Determining displacement for added points according to pointNormal ...
Detected 0 points with point normal pointing through faces.
Reset displacement at 0 points to average of surrounding points.

displacementMedialAxis : Smoothing using Medial Axis ...
displacementMedialAxis : Reducing layer thickness at 0 nodes where thickness to medial axis distance is large 
displacementMedialAxis : Removing isolated regions ...
displacementMedialAxis : Number of isolated points extrusion stopped : 0
displacementMedialAxis : Smoothing field ...
    Iteration 0   residual 1.1224643e-05
displacementMedialAxis : Moving mesh ...
displacementMedialAxis : Iteration 0
Moving mesh using displacement scaling : min:1  max:1
Checking faces in error :
    non-orthogonality > 65  degrees                        : 161
    faces with face pyramid volume < 1e-13                 : 43
    faces with face-decomposition tet quality < 1e-30      : 33
    faces with concavity > 80  degrees                     : 0
    faces with skewness > 4   (internal) or 20  (boundary) : 0
    faces with interpolation weights (0..1)  < 0.05        : 0
    faces with volume ratio of neighbour cells < 0.01      : 0
    faces with face twist < 0.05                           : 2
    faces on cells with determinant < 0.001                : 3
displacementMedialAxis : Iteration 1
Moving mesh using displacement scaling : min:0.75  max:1
Checking faces in error :
    non-orthogonality > 65  degrees                        : 38
    faces with face pyramid volume < 1e-13                 : 11
    faces with face-decomposition tet quality < 1e-30      : 14
    faces with concavity > 80  degrees                     : 0
    faces with skewness > 4   (internal) or 20  (boundary) : 0
    faces with interpolation weights (0..1)  < 0.05        : 0
    faces with volume ratio of neighbour cells < 0.01      : 0
    faces with face twist < 0.05                           : 1
    faces on cells with determinant < 0.001                : 0
displacementMedialAxis : Iteration 2
Moving mesh using displacement scaling : min:0.5625  max:1
Checking faces in error :
    non-orthogonality > 65  degrees                        : 2
    faces with face pyramid volume < 1e-13                 : 0
    faces with face-decomposition tet quality < 1e-30      : 12
    faces with concavity > 80  degrees                     : 0
    faces with skewness > 4   (internal) or 20  (boundary) : 0
    faces with interpolation weights (0..1)  < 0.05        : 1
    faces with volume ratio of neighbour cells < 0.01      : 0
    faces with face twist < 0.05                           : 0
    faces on cells with determinant < 0.001                : 0
displacementMedialAxis : Iteration 3
Moving mesh using displacement scaling : min:0.421875  max:1
Checking faces in error :
    non-orthogonality > 65  degrees                        : 0
    faces with face pyramid volume < 1e-13                 : 0
    faces with face-decomposition tet quality < 1e-30      : 0
    faces with concavity > 80  degrees                     : 0
    faces with skewness > 4   (internal) or 20  (boundary) : 0
    faces with interpolation weights (0..1)  < 0.05        : 0
    faces with volume ratio of neighbour cells < 0.01      : 0
    faces with face twist < 0.05                           : 0
    faces on cells with determinant < 0.001                : 0
displacementMedialAxis : Successfully moved mesh
displacementMedialAxis : Finished moving mesh ...
truncateDisplacement : Unextruded 0 faces due to non-consecutive vertices being extruded.
truncateDisplacement : Unextruded 0 faces due to stringed edges with inconsistent extrusion.

Setting up information for layer truncation ...

Checking mesh with layer ...
Checking faces in error :
    non-orthogonality > 65  degrees                        : 0
    faces with face pyramid volume < 1e-13                 : 0
    faces with face-decomposition tet quality < 1e-30      : 1
    faces with concavity > 80  degrees                     : 0
    faces with skewness > 4   (internal) or 20  (boundary) : 0
    faces with interpolation weights (0..1)  < 0.05        : 0
    faces with volume ratio of neighbour cells < 0.01      : 0
    faces with face twist < 0.05                           : 0
    faces on cells with determinant < 0.001                : 0
Detected 1 illegal faces (concave, zero area or negative cell pyramid volume)
Extruding 37810 out of 39162 faces (96.547674%). Removed extrusion at 1 faces.
Added 455553 out of 571760 cells (79.675563%).


Layer addition iteration 15
--------------------------

Determining displacement for added points according to pointNormal ...
Detected 0 points with point normal pointing through faces.
Reset displacement at 0 points to average of surrounding points.

displacementMedialAxis : Smoothing using Medial Axis ...
displacementMedialAxis : Reducing layer thickness at 0 nodes where thickness to medial axis distance is large 
displacementMedialAxis : Removing isolated regions ...
displacementMedialAxis : Number of isolated points extrusion stopped : 0
displacementMedialAxis : Smoothing field ...
    Iteration 0   residual 1.1230111e-05
displacementMedialAxis : Moving mesh ...
displacementMedialAxis : Iteration 0
Moving mesh using displacement scaling : min:1  max:1
Checking faces in error :
    non-orthogonality > 65  degrees                        : 161
    faces with face pyramid volume < 1e-13                 : 43
    faces with face-decomposition tet quality < 1e-30      : 33
    faces with concavity > 80  degrees                     : 0
    faces with skewness > 4   (internal) or 20  (boundary) : 0
    faces with interpolation weights (0..1)  < 0.05        : 0
    faces with volume ratio of neighbour cells < 0.01      : 0
    faces with face twist < 0.05                           : 2
    faces on cells with determinant < 0.001                : 3
displacementMedialAxis : Iteration 1
Moving mesh using displacement scaling : min:0.75  max:1
Checking faces in error :
    non-orthogonality > 65  degrees                        : 37
    faces with face pyramid volume < 1e-13                 : 11
    faces with face-decomposition tet quality < 1e-30      : 15
    faces with concavity > 80  degrees                     : 0
    faces with skewness > 4   (internal) or 20  (boundary) : 0
    faces with interpolation weights (0..1)  < 0.05        : 0
    faces with volume ratio of neighbour cells < 0.01      : 0
    faces with face twist < 0.05                           : 1
    faces on cells with determinant < 0.001                : 0
displacementMedialAxis : Iteration 2
Moving mesh using displacement scaling : min:0.5625  max:1
Checking faces in error :
    non-orthogonality > 65  degrees                        : 3
    faces with face pyramid volume < 1e-13                 : 0
    faces with face-decomposition tet quality < 1e-30      : 14
    faces with concavity > 80  degrees                     : 0
    faces with skewness > 4   (internal) or 20  (boundary) : 0
    faces with interpolation weights (0..1)  < 0.05        : 1
    faces with volume ratio of neighbour cells < 0.01      : 0
    faces with face twist < 0.05                           : 0
    faces on cells with determinant < 0.001                : 0
displacementMedialAxis : Iteration 3
Moving mesh using displacement scaling : min:0.421875  max:1
Checking faces in error :
    non-orthogonality > 65  degrees                        : 0
    faces with face pyramid volume < 1e-13                 : 0
    faces with face-decomposition tet quality < 1e-30      : 0
    faces with concavity > 80  degrees                     : 0
    faces with skewness > 4   (internal) or 20  (boundary) : 0
    faces with interpolation weights (0..1)  < 0.05        : 0
    faces with volume ratio of neighbour cells < 0.01      : 0
    faces with face twist < 0.05                           : 0
    faces on cells with determinant < 0.001                : 0
displacementMedialAxis : Successfully moved mesh
displacementMedialAxis : Finished moving mesh ...
truncateDisplacement : Unextruded 0 faces due to non-consecutive vertices being extruded.
truncateDisplacement : Unextruded 0 faces due to stringed edges with inconsistent extrusion.

Setting up information for layer truncation ...

Checking mesh with layer ...
Checking faces in error :
    non-orthogonality > 65  degrees                        : 0
    faces with face pyramid volume < 1e-13                 : 0
    faces with face-decomposition tet quality < 1e-30      : 1
    faces with concavity > 80  degrees                     : 0
    faces with skewness > 4   (internal) or 20  (boundary) : 0
    faces with interpolation weights (0..1)  < 0.05        : 0
    faces with volume ratio of neighbour cells < 0.01      : 0
    faces with face twist < 0.05                           : 0
    faces on cells with determinant < 0.001                : 0
Detected 1 illegal faces (concave, zero area or negative cell pyramid volume)
Extruding 37809 out of 39162 faces (96.54512%). Removed extrusion at 1 faces.
Added 455550 out of 571760 cells (79.675038%).


Layer addition iteration 16
--------------------------

Determining displacement for added points according to pointNormal ...
Detected 0 points with point normal pointing through faces.
Reset displacement at 0 points to average of surrounding points.

displacementMedialAxis : Smoothing using Medial Axis ...
displacementMedialAxis : Reducing layer thickness at 0 nodes where thickness to medial axis distance is large 
displacementMedialAxis : Removing isolated regions ...
displacementMedialAxis : Number of isolated points extrusion stopped : 0
displacementMedialAxis : Smoothing field ...
    Iteration 0   residual 1.1236509e-05
displacementMedialAxis : Moving mesh ...
displacementMedialAxis : Iteration 0
Moving mesh using displacement scaling : min:1  max:1
Checking faces in error :
    non-orthogonality > 65  degrees                        : 159
    faces with face pyramid volume < 1e-13                 : 43
    faces with face-decomposition tet quality < 1e-30      : 33
    faces with concavity > 80  degrees                     : 0
    faces with skewness > 4   (internal) or 20  (boundary) : 0
    faces with interpolation weights (0..1)  < 0.05        : 0
    faces with volume ratio of neighbour cells < 0.01      : 0
    faces with face twist < 0.05                           : 2
    faces on cells with determinant < 0.001                : 3
displacementMedialAxis : Iteration 1
Moving mesh using displacement scaling : min:0.75  max:1
Checking faces in error :
    non-orthogonality > 65  degrees                        : 37
    faces with face pyramid volume < 1e-13                 : 11
    faces with face-decomposition tet quality < 1e-30      : 16
    faces with concavity > 80  degrees                     : 0
    faces with skewness > 4   (internal) or 20  (boundary) : 0
    faces with interpolation weights (0..1)  < 0.05        : 0
    faces with volume ratio of neighbour cells < 0.01      : 0
    faces with face twist < 0.05                           : 1
    faces on cells with determinant < 0.001                : 0
displacementMedialAxis : Iteration 2
Moving mesh using displacement scaling : min:0.5625  max:1
Checking faces in error :
    non-orthogonality > 65  degrees                        : 2
    faces with face pyramid volume < 1e-13                 : 0
    faces with face-decomposition tet quality < 1e-30      : 12
    faces with concavity > 80  degrees                     : 0
    faces with skewness > 4   (internal) or 20  (boundary) : 0
    faces with interpolation weights (0..1)  < 0.05        : 1
    faces with volume ratio of neighbour cells < 0.01      : 0
    faces with face twist < 0.05                           : 0
    faces on cells with determinant < 0.001                : 0
displacementMedialAxis : Iteration 3
Moving mesh using displacement scaling : min:0.421875  max:1
Checking faces in error :
    non-orthogonality > 65  degrees                        : 0
    faces with face pyramid volume < 1e-13                 : 0
    faces with face-decomposition tet quality < 1e-30      : 0
    faces with concavity > 80  degrees                     : 0
    faces with skewness > 4   (internal) or 20  (boundary) : 0
    faces with interpolation weights (0..1)  < 0.05        : 0
    faces with volume ratio of neighbour cells < 0.01      : 0
    faces with face twist < 0.05                           : 0
    faces on cells with determinant < 0.001                : 0
displacementMedialAxis : Successfully moved mesh
displacementMedialAxis : Finished moving mesh ...
truncateDisplacement : Unextruded 0 faces due to non-consecutive vertices being extruded.
truncateDisplacement : Unextruded 0 faces due to stringed edges with inconsistent extrusion.

Setting up information for layer truncation ...

Checking mesh with layer ...
Checking faces in error :
    non-orthogonality > 65  degrees                        : 0
    faces with face pyramid volume < 1e-13                 : 0
    faces with face-decomposition tet quality < 1e-30      : 0
    faces with concavity > 80  degrees                     : 0
    faces with skewness > 4   (internal) or 20  (boundary) : 0
    faces with interpolation weights (0..1)  < 0.05        : 0
    faces with volume ratio of neighbour cells < 0.01      : 0
    faces with face twist < 0.05                           : 0
    faces on cells with determinant < 0.001                : 0
Detected 0 illegal faces (concave, zero area or negative cell pyramid volume)
Extruding 37809 out of 39162 faces (96.54512%). Removed extrusion at 0 faces.
Added 455547 out of 571760 cells (79.674514%).
Edge intersection testing:
    Number of edges             : 3867244
    Number of edges to retest   : 0
    Number of intersected edges : 494709

Doing final balancing
---------------------


patch    faces    layers   overall thickness
                           [m]       [%]
-----    -----    ------   ---       ---
Wing.stl 35942    12.5     0.00343   95.1    
Tips.stl 3220     2.15     0.000731  55.9    

Layer mesh : cells:1260388  faces:3867244  points:1347148
Cells per refinement level:
    0	10562
    1	37184
    2	319802
    3	15363
    4	35504
    5	89515
    6	752458
Writing mesh to time constant
Wrote mesh in = 67.13 s.
Layers added in = 67.13 s.
Checking final mesh ...
Checking faces in error :
    non-orthogonality > 65  degrees                        : 0
    faces with face pyramid volume < 1e-13                 : 0
    faces with face-decomposition tet quality < 1e-30      : 0
    faces with concavity > 80  degrees                     : 0
    faces with skewness > 4   (internal) or 20  (boundary) : 0
    faces with interpolation weights (0..1)  < 0.05        : 0
    faces with volume ratio of neighbour cells < 0.01      : 0
    faces with face twist < 0.05                           : 0
    faces on cells with determinant < 0.001                : 0
Finished meshing without any errors
Finished meshing in = 164.49 s.
End

Finalising parallel run
