/*---------------------------------------------------------------------------*\
  =========                 |
  \\      /  F ield         | OpenFOAM: The Open Source CFD Toolbox
   \\    /   O peration     | Website:  https://openfoam.org
    \\  /    A nd           | Version:  8
     \\/     M anipulation  |
\*---------------------------------------------------------------------------*/
Build  : 8-340defec456f
Exec   : decomposePar
Date   : Dec 07 2020
Time   : 13:24:46
Host   : "DESKTOP-1H96F7Q"
PID    : 1425
fileName::stripInvalid() called for invalid fileName /mnt/c/Users/FrankieHui/openfoam/run_2D/template
    For debug level (= 2) > 1 this is considered fatal
