/*---------------------------------------------------------------------------*\
| =========                 |                                                 |
| \\      /  F ield         | OpenFOAM: The Open Source CFD Toolbox           |
|  \\    /   O peration     | Version:  v2006                                 |
|   \\  /    A nd           | Website:  www.openfoam.com                      |
|    \\/     M anipulation  |                                                 |
\*---------------------------------------------------------------------------*/
Build  : _b45f8f6f58-20200629 OPENFOAM=2006
Arch   : "LSB;label=32;scalar=64"
Exec   : blockMesh
Date   : Jan 06 2021
Time   : 22:24:25
Host   : DESKTOP-1H96F7Q
PID    : 4768
I/O    : uncollated
Case   : /home/kyfrankie/FYDP-CFD/run_2D/template
nProcs : 1
trapFpe: Floating point exception trapping enabled (FOAM_SIGFPE).
fileModificationChecking : Monitoring run-time modified files using timeStampMaster (fileModificationSkew 5, maxFileModificationPolls 20)
allowSystemOperations : Allowing user-supplied system call operations

// * * * * * * * * * * * * * * * * * * * * * * * * * * * * * * * * * * * * * //
Create time

Creating block mesh from "system/blockMeshDict"
--> FOAM IOWarning :
    Found [v1012] 'convertToMeters' entry instead of 'scale' in dictionary "/home/kyfrankie/FYDP-CFD/run_2D/template/system/blockMeshDict" 

    This keyword is deemed to be 114 months old.

Creating block edges
No non-planar block faces defined
Creating topology blocks
Creating topology patches

Creating block mesh topology

Check topology

	Basic statistics
		Number of internal faces : 0
		Number of boundary faces : 6
		Number of defined boundary faces : 6
		Number of undefined boundary faces : 0
	Checking patch -> block consistency

Creating block offsets
Creating merge list (topological search)...

Creating polyMesh from blockMesh
Creating patches
Creating cells
Creating points with scale 1
    Block 0 cell size :
        i : 0.025 .. 0.025
        j : 0.025 .. 0.025
        k : 0.025 .. 0.025


There are no merge patch pairs

Writing polyMesh with 0 cellZones
----------------
Mesh Information
----------------
  boundingBox: (-0.5 -0.6 0.1) (1.2 0.6 0.125)
  nPoints: 6762
  nCells: 3264
  nFaces: 13172
  nInternalFaces: 6412
----------------
Patches
----------------
  patch 0 (start: 6412 size: 68) name: TOP
  patch 1 (start: 6480 size: 68) name: BOTTOM
  patch 2 (start: 6548 size: 48) name: INLET
  patch 3 (start: 6596 size: 48) name: OUTLET
  patch 4 (start: 6644 size: 3264) name: SYMMETRY
  patch 5 (start: 9908 size: 3264) name: WALL

End

