/*---------------------------------------------------------------------------*\
| =========                 |                                                 |
| \\      /  F ield         | OpenFOAM: The Open Source CFD Toolbox           |
|  \\    /   O peration     | Version:  4.x                                   |
|   \\  /    A nd           | Web:      www.OpenFOAM.org                      |
|    \\/     M anipulation  |                                                 |
\*---------------------------------------------------------------------------*/
Build  : 4.x-d214c8dfd5ba
Exec   : checkMesh
Date   : Feb 02 2021
Time   : 16:28:05
Host   : "DESKTOP-1H96F7Q"
PID    : 1872
Case   : /home/kyfrankie/openfoam/run/template
nProcs : 1
sigFpe : Enabling floating point exception trapping (FOAM_SIGFPE).
fileModificationChecking : Monitoring run-time modified files using timeStampMaster
allowSystemOperations : Allowing user-supplied system call operations

// * * * * * * * * * * * * * * * * * * * * * * * * * * * * * * * * * * * * * //
Create time

Create polyMesh for time = 0

Time = 0

Mesh stats
    points:           808305
    internal points:  769042
    faces:            7289665
    internal faces:   7213163
    cells:            3469857
    faces per cell:   4.1796616
    boundary patches: 6
    point zones:      0
    face zones:       1
    cell zones:       1

Overall number of cells of each type:
    hexahedra:     0
    prisms:        623400
    wedges:        0
    pyramids:      0
    tet wedges:    0
    tetrahedra:    2846457
    polyhedra:     0

Checking topology...
    Boundary definition OK.
    Cell to face addressing OK.
    Point usage OK.
    Upper triangular ordering OK.
    Face vertices OK.
    Number of regions: 1 (OK).

Checking patch topology for multiply connected surfaces...
    Patch               Faces    Points   Surface topology                  
    SYMMETRY            12488    7386     ok (non-closed singly connected)  
    WALL                781      427      ok (non-closed singly connected)  
    OUTLET              103      66       ok (non-closed singly connected)  
    INLET               790      427      ok (non-closed singly connected)  
    Wing.stl            60600    30502    ok (non-closed singly connected)  
    WingTip             1740     972      ok (non-closed singly connected)  

Checking geometry...
    Overall domain bounding box (-1.9975751 -2 -1.2246468e-16) (3.15 2 1.9999995)
    Mesh has 3 geometric (non-empty/wedge) directions (1 1 1)
    Mesh has 3 solution (non-empty) directions (1 1 1)
    Boundary openness (-7.2620743e-17 8.8309003e-18 2.5376358e-15) OK.
    Max cell openness = 3.2760733e-16 OK.
    Max aspect ratio = 14.035706 OK.
    Minimum face area = 2.3947111e-08. Maximum face area = 0.097233085.  Face area magnitudes OK.
    Min volume = 3.7091798e-12. Max volume = 0.010136813.  Total volume = 28.092261.  Cell volumes OK.
    Mesh non-orthogonality Max: 72.135909 average: 17.304201
   *Number of severely non-orthogonal (> 70 degrees) faces: 208.
    Non-orthogonality check OK.
  <<Writing 208 non-orthogonal faces to set nonOrthoFaces
    Face pyramids OK.
    Max skewness = 2.423513 OK.
    Coupled point location match (average 0) OK.

Mesh OK.

End

