/*---------------------------------------------------------------------------*\
| =========                 |                                                 |
| \\      /  F ield         | OpenFOAM: The Open Source CFD Toolbox           |
|  \\    /   O peration     | Version:  4.x                                   |
|   \\  /    A nd           | Web:      www.OpenFOAM.org                      |
|    \\/     M anipulation  |                                                 |
\*---------------------------------------------------------------------------*/
Build  : 4.x-d214c8dfd5ba
Exec   : decomposePar
Date   : Feb 24 2021
Time   : 16:56:34
Host   : "DESKTOP-1H96F7Q"
PID    : 19376
Case   : /home/kyfrankie/openfoam/run/template
nProcs : 1
sigFpe : Enabling floating point exception trapping (FOAM_SIGFPE).
fileModificationChecking : Monitoring run-time modified files using timeStampMaster
allowSystemOperations : Allowing user-supplied system call operations

// * * * * * * * * * * * * * * * * * * * * * * * * * * * * * * * * * * * * * //
Create time



Decomposing mesh region0

Create mesh

Calculating distribution of cells
Selecting decompositionMethod scotch

Finished decomposition in 2.57 s

Calculating original mesh data

Distributing cells to processors

Distributing faces to processors

Distributing points to processors

Constructing processor meshes

Processor 0
    Number of cells = 70456
    Number of faces shared with processor 1 = 2375
    Number of faces shared with processor 2 = 1598
    Number of faces shared with processor 5 = 1956
    Number of processor patches = 3
    Number of processor faces = 5929
    Number of boundary faces = 2196

Processor 1
    Number of cells = 69129
    Number of faces shared with processor 0 = 2375
    Number of faces shared with processor 2 = 3079
    Number of processor patches = 2
    Number of processor faces = 5454
    Number of boundary faces = 1973

Processor 2
    Number of cells = 70431
    Number of faces shared with processor 0 = 1598
    Number of faces shared with processor 1 = 3079
    Number of faces shared with processor 4 = 2986
    Number of faces shared with processor 5 = 1307
    Number of faces shared with processor 10 = 324
    Number of processor patches = 5
    Number of processor faces = 9294
    Number of boundary faces = 2107

Processor 3
    Number of cells = 70064
    Number of faces shared with processor 4 = 2318
    Number of faces shared with processor 5 = 2006
    Number of faces shared with processor 9 = 1941
    Number of faces shared with processor 10 = 88
    Number of faces shared with processor 11 = 1950
    Number of processor patches = 5
    Number of processor faces = 8303
    Number of boundary faces = 1124

Processor 4
    Number of cells = 70131
    Number of faces shared with processor 2 = 2986
    Number of faces shared with processor 3 = 2318
    Number of faces shared with processor 5 = 2196
    Number of faces shared with processor 9 = 57
    Number of faces shared with processor 10 = 471
    Number of processor patches = 5
    Number of processor faces = 8028
    Number of boundary faces = 930

Processor 5
    Number of cells = 70470
    Number of faces shared with processor 0 = 1956
    Number of faces shared with processor 2 = 1307
    Number of faces shared with processor 3 = 2006
    Number of faces shared with processor 4 = 2196
    Number of faces shared with processor 10 = 661
    Number of faces shared with processor 11 = 131
    Number of processor patches = 6
    Number of processor faces = 8257
    Number of boundary faces = 1478

Processor 6
    Number of cells = 69080
    Number of faces shared with processor 7 = 620
    Number of faces shared with processor 8 = 2584
    Number of faces shared with processor 9 = 981
    Number of faces shared with processor 11 = 1878
    Number of processor patches = 4
    Number of processor faces = 6063
    Number of boundary faces = 5266

Processor 7
    Number of cells = 69080
    Number of faces shared with processor 6 = 620
    Number of faces shared with processor 8 = 5266
    Number of faces shared with processor 9 = 1668
    Number of processor patches = 3
    Number of processor faces = 7554
    Number of boundary faces = 6788

Processor 8
    Number of cells = 69084
    Number of faces shared with processor 6 = 2584
    Number of faces shared with processor 7 = 5266
    Number of faces shared with processor 9 = 1145
    Number of faces shared with processor 10 = 965
    Number of faces shared with processor 11 = 1521
    Number of processor patches = 5
    Number of processor faces = 11481
    Number of boundary faces = 3656

Processor 9
    Number of cells = 69819
    Number of faces shared with processor 3 = 1941
    Number of faces shared with processor 4 = 57
    Number of faces shared with processor 6 = 981
    Number of faces shared with processor 7 = 1668
    Number of faces shared with processor 8 = 1145
    Number of faces shared with processor 10 = 746
    Number of faces shared with processor 11 = 2821
    Number of processor patches = 7
    Number of processor faces = 9359
    Number of boundary faces = 1126

Processor 10
    Number of cells = 70474
    Number of faces shared with processor 2 = 324
    Number of faces shared with processor 3 = 88
    Number of faces shared with processor 4 = 471
    Number of faces shared with processor 5 = 661
    Number of faces shared with processor 8 = 965
    Number of faces shared with processor 9 = 746
    Number of faces shared with processor 11 = 2215
    Number of processor patches = 7
    Number of processor faces = 5470
    Number of boundary faces = 3526

Processor 11
    Number of cells = 69108
    Number of faces shared with processor 3 = 1950
    Number of faces shared with processor 5 = 131
    Number of faces shared with processor 6 = 1878
    Number of faces shared with processor 8 = 1521
    Number of faces shared with processor 9 = 2821
    Number of faces shared with processor 10 = 2215
    Number of processor patches = 6
    Number of processor faces = 10516
    Number of boundary faces = 155

Number of processor faces = 47854
Max number of cells = 70474 (0.99865524% above average 69777.167)
Max number of processor patches = 7 (44.827586% above average 4.8333333)
Max number of faces between processors = 11481 (43.950349% above average 7975.6667)

Time = 0
--> FOAM Warning : 
    From function const Foam::HashTable<Foam::List<long int>, Foam::word>& Foam::polyBoundaryMesh::groupPatchIDs() const
    in file meshes/polyMesh/polyBoundaryMesh/polyBoundaryMesh.C at line 448
    Patch symmetry specifies a group symmetry which is also a patch name. This might give problems later on.

Processor 0: field transfer
Processor 1: field transfer
Processor 2: field transfer
Processor 3: field transfer
Processor 4: field transfer
Processor 5: field transfer
Processor 6: field transfer
Processor 7: field transfer
Processor 8: field transfer
Processor 9: field transfer
Processor 10: field transfer
Processor 11: field transfer

End

