/*---------------------------------------------------------------------------*\
| =========                 |                                                 |
| \\      /  F ield         | OpenFOAM: The Open Source CFD Toolbox           |
|  \\    /   O peration     | Version:  4.x                                   |
|   \\  /    A nd           | Web:      www.OpenFOAM.org                      |
|    \\/     M anipulation  |                                                 |
\*---------------------------------------------------------------------------*/
Build  : 4.x-d214c8dfd5ba
Exec   : pimpleFoam -parallel
Date   : Feb 24 2021
Time   : 16:56:50
Host   : "DESKTOP-1H96F7Q"
PID    : 19396
Case   : /home/kyfrankie/openfoam/run/template
nProcs : 12
Slaves : 
11
(
"DESKTOP-1H96F7Q.19397"
"DESKTOP-1H96F7Q.19398"
"DESKTOP-1H96F7Q.19399"
"DESKTOP-1H96F7Q.19400"
"DESKTOP-1H96F7Q.19401"
"DESKTOP-1H96F7Q.19402"
"DESKTOP-1H96F7Q.19403"
"DESKTOP-1H96F7Q.19404"
"DESKTOP-1H96F7Q.19405"
"DESKTOP-1H96F7Q.19406"
"DESKTOP-1H96F7Q.19407"
)

Pstream initialized with:
    floatTransfer      : 0
    nProcsSimpleSum    : 0
    commsType          : nonBlocking
    polling iterations : 0
sigFpe : Enabling floating point exception trapping (FOAM_SIGFPE).
fileModificationChecking : Monitoring run-time modified files using timeStampMaster
allowSystemOperations : Allowing user-supplied system call operations

// * * * * * * * * * * * * * * * * * * * * * * * * * * * * * * * * * * * * * //
Create time

Create mesh for time = 0


PIMPLE: Operating solver in PISO mode

Reading field p

Reading field U

Reading/calculating face flux field phi

Selecting incompressible transport model Newtonian
Selecting turbulence model type RAS
Selecting RAS turbulence model kOmegaSST
Selecting patchDistMethod meshWave
kOmegaSSTCoeffs
{
    alphaK1         0.85;
    alphaK2         1;
    alphaOmega1     0.5;
    alphaOmega2     0.856;
    gamma1          0.55555556;
    gamma2          0.44;
    beta1           0.075;
    beta2           0.0828;
    betaStar        0.09;
    a1              0.31;
    b1              1;
    c1              10;
    F3              false;
}

No MRF models present

No finite volume options present


Starting time loop

Courant Number mean: 0.0026355817 max: 1.6492052
deltaT = 2.728513e-06
Time = 2.72851e-06

PIMPLE: iteration 1
smoothSolver:  Solving for Ux, Initial residual = 0.99995487, Final residual = 7.6583698e-09, No Iterations 6
smoothSolver:  Solving for Uy, Initial residual = 0.99997396, Final residual = 8.5794291e-09, No Iterations 6
smoothSolver:  Solving for Uz, Initial residual = 1, Final residual = 7.2566434e-09, No Iterations 7
GAMG:  Solving for p, Initial residual = 1, Final residual = 0.0070668929, No Iterations 10
GAMG:  Solving for p, Initial residual = 0.39076669, Final residual = 0.0029747899, No Iterations 5
GAMG:  Solving for p, Initial residual = 0.084535564, Final residual = 0.00062773312, No Iterations 6
time step continuity errors : sum local = 1.3605586e-10, global = 3.0597701e-13, cumulative = 3.0597701e-13
GAMG:  Solving for p, Initial residual = 0.08287532, Final residual = 0.00071995613, No Iterations 6
GAMG:  Solving for p, Initial residual = 0.05333334, Final residual = 0.00032719411, No Iterations 6
GAMG:  Solving for p, Initial residual = 0.038374227, Final residual = 8.6736897e-07, No Iterations 16
time step continuity errors : sum local = 1.8125781e-13, global = -5.1246364e-15, cumulative = 3.0085238e-13
smoothSolver:  Solving for omega, Initial residual = 3.8699842e-07, Final residual = 1.172831e-09, No Iterations 1
bounding omega, min: -252.53333 max: 659066.41 average: 787.36489
smoothSolver:  Solving for k, Initial residual = 1, Final residual = 1.6092433e-09, No Iterations 4
ExecutionTime = 4.59 s  ClockTime = 4 s

Courant Number mean: 0.0014383092 max: 0.74412422
deltaT = 3.0582048e-06
Time = 5.78672e-06

PIMPLE: iteration 1
smoothSolver:  Solving for Ux, Initial residual = 0.021241812, Final residual = 1.1739236e-09, No Iterations 2
smoothSolver:  Solving for Uy, Initial residual = 0.029014911, Final residual = 1.9838532e-09, No Iterations 2
smoothSolver:  Solving for Uz, Initial residual = 0.0574201, Final residual = 1.3947774e-09, No Iterations 2
GAMG:  Solving for p, Initial residual = 0.35304127, Final residual = 0.0022451119, No Iterations 9
GAMG:  Solving for p, Initial residual = 0.42399197, Final residual = 0.0031685341, No Iterations 5
GAMG:  Solving for p, Initial residual = 0.17033154, Final residual = 0.0012009562, No Iterations 6
time step continuity errors : sum local = 8.7717529e-11, global = -8.4403746e-14, cumulative = 2.1644863e-13
GAMG:  Solving for p, Initial residual = 0.1154866, Final residual = 0.00087863213, No Iterations 6
GAMG:  Solving for p, Initial residual = 0.068274516, Final residual = 0.00045204027, No Iterations 6
GAMG:  Solving for p, Initial residual = 0.04408523, Final residual = 7.4607528e-07, No Iterations 17
time step continuity errors : sum local = 4.6964747e-14, global = -1.9450602e-15, cumulative = 2.1450357e-13
smoothSolver:  Solving for omega, Initial residual = 2.5584213e-07, Final residual = 1.9128514e-10, No Iterations 1
bounding omega, min: -337.20693 max: 659236.35 average: 799.99107
smoothSolver:  Solving for k, Initial residual = 0.00090126652, Final residual = 5.2515828e-11, No Iterations 2
ExecutionTime = 7.72 s  ClockTime = 7 s

Courant Number mean: 0.0016121049 max: 0.79044861
deltaT = 3.406344e-06
Time = 9.19306e-06

PIMPLE: iteration 1
smoothSolver:  Solving for Ux, Initial residual = 0.00024904384, Final residual = 3.3563415e-11, No Iterations 2
smoothSolver:  Solving for Uy, Initial residual = 0.00058670965, Final residual = 1.0511773e-10, No Iterations 2
smoothSolver:  Solving for Uz, Initial residual = 0.0008598655, Final residual = 4.9174197e-11, No Iterations 2
GAMG:  Solving for p, Initial residual = 0.76899109, Final residual = 0.0045260605, No Iterations 6
GAMG:  Solving for p, Initial residual = 0.093431386, Final residual = 0.00060480532, No Iterations 6
GAMG:  Solving for p, Initial residual = 0.038910719, Final residual = 0.00024730975, No Iterations 6
time step continuity errors : sum local = 3.4554108e-11, global = -3.4517164e-13, cumulative = -1.3066807e-13
GAMG:  Solving for p, Initial residual = 0.025819636, Final residual = 0.00017377651, No Iterations 6
GAMG:  Solving for p, Initial residual = 0.01853548, Final residual = 0.00010734686, No Iterations 6
GAMG:  Solving for p, Initial residual = 0.013424757, Final residual = 6.8866537e-07, No Iterations 14
time step continuity errors : sum local = 9.7344316e-14, global = 7.5355438e-16, cumulative = -1.2991452e-13
smoothSolver:  Solving for omega, Initial residual = 1.6509755e-07, Final residual = 1.5996632e-10, No Iterations 1
bounding omega, min: -2937.5368 max: 659577.2 average: 809.59953
smoothSolver:  Solving for k, Initial residual = 0.00045319232, Final residual = 3.7623181e-11, No Iterations 2
ExecutionTime = 10.62 s  ClockTime = 10 s

Courant Number mean: 0.0017956462 max: 0.8127043
deltaT = 3.771539e-06
Time = 1.29646e-05

PIMPLE: iteration 1
smoothSolver:  Solving for Ux, Initial residual = 0.0039920138, Final residual = 4.4957832e-10, No Iterations 2
smoothSolver:  Solving for Uy, Initial residual = 0.005343548, Final residual = 7.1630449e-10, No Iterations 2
smoothSolver:  Solving for Uz, Initial residual = 0.011891975, Final residual = 3.7832507e-10, No Iterations 2
