/*---------------------------------------------------------------------------*\
| =========                 |                                                 |
| \\      /  F ield         | OpenFOAM: The Open Source CFD Toolbox           |
|  \\    /   O peration     | Version:  4.x                                   |
|   \\  /    A nd           | Web:      www.OpenFOAM.org                      |
|    \\/     M anipulation  |                                                 |
\*---------------------------------------------------------------------------*/
Build  : 4.x-d214c8dfd5ba
Exec   : pimpleFoam -parallel -postProcess -funcs (yPlus forceCoefficient) -latestTime
Date   : Feb 24 2021
Time   : 16:57:02
Host   : "DESKTOP-1H96F7Q"
PID    : 19444
Case   : /home/kyfrankie/openfoam/run/template
nProcs : 12
Slaves : 
11
(
"DESKTOP-1H96F7Q.19445"
"DESKTOP-1H96F7Q.19446"
"DESKTOP-1H96F7Q.19447"
"DESKTOP-1H96F7Q.19448"
"DESKTOP-1H96F7Q.19449"
"DESKTOP-1H96F7Q.19450"
"DESKTOP-1H96F7Q.19451"
"DESKTOP-1H96F7Q.19452"
"DESKTOP-1H96F7Q.19453"
"DESKTOP-1H96F7Q.19454"
"DESKTOP-1H96F7Q.19455"
)

Pstream initialized with:
    floatTransfer      : 0
    nProcsSimpleSum    : 0
    commsType          : nonBlocking
    polling iterations : 0
sigFpe : Enabling floating point exception trapping (FOAM_SIGFPE).
fileModificationChecking : Monitoring run-time modified files using timeStampMaster
allowSystemOperations : Allowing user-supplied system call operations

// * * * * * * * * * * * * * * * * * * * * * * * * * * * * * * * * * * * * * //
Create time

Create mesh for time = 0


PIMPLE: Operating solver in PISO mode

forces forceCoefficient:
    Not including porosity effects
forceCoeffs forceCoefficient:
    Not including porosity effects
Time = 0
Reading field p

Reading field U

Reading/calculating face flux field phi

Selecting incompressible transport model Newtonian
Selecting turbulence model type RAS
Selecting RAS turbulence model kOmegaSST
Selecting patchDistMethod meshWave
kOmegaSSTCoeffs
{
    alphaK1         0.85;
    alphaK2         1;
    alphaOmega1     0.5;
    alphaOmega2     0.856;
    gamma1          0.55555556;
    gamma2          0.44;
    beta1           0.075;
    beta2           0.0828;
    betaStar        0.09;
    a1              0.31;
    b1              1;
    c1              10;
    F3              false;
}

No MRF models present

yPlus yPlus write:
    writing field yPlus
    patch wing_le y+ : min = 0.4475461, max = 1.2930753, average = 0.98475416
    patch wing_end y+ : min = 0.47897395, max = 1.1613028, average = 0.81553095
    patch wing_surface y+ : min = 0.3327001, max = 1.2418605, average = 1.1239717
    patch wing_te y+ : min = 0.29233031, max = 0.82702823, average = 0.65579794
    patch wing_tip y+ : min = 0.21617193, max = 1.2406342, average = 0.78016832
forceCoeffs forceCoefficient write:
    Cm    = 0.00016607828
    Cd    = 0.014248365
    Cl    = 0.00014406085
    Cl(f) = 0.00023810871
    Cl(r) = -9.4047858e-05

yPlus yPlus write:
    writing field yPlus
    patch wing_le y+ : min = 0.4475461, max = 1.2930753, average = 0.98475416
    patch wing_end y+ : min = 0.47897395, max = 1.1613028, average = 0.81553095
    patch wing_surface y+ : min = 0.3327001, max = 1.2418605, average = 1.1239717
    patch wing_te y+ : min = 0.29233031, max = 0.82702823, average = 0.65579794
    patch wing_tip y+ : min = 0.21617193, max = 1.2406342, average = 0.78016832
forceCoeffs forceCoefficient write:
    Cm    = 0.00016607828
    Cd    = 0.014248365
    Cl    = 0.00014406085
    Cl(f) = 0.00023810871
    Cl(r) = -9.4047858e-05


End

Finalising parallel run
